<?xml version="1.0" encoding="UTF-8"?>

<!-- generated on 2022-12-08 10:37:56 by Eclipse SUMO netedit Version 1.14.1
<configuration xmlns:xsi="http://www.w3.org/2001/XMLSchema-instance" xsi:noNamespaceSchemaLocation="http://sumo.dlr.de/xsd/netconvertConfiguration.xsd">

    <input>
        <sumo-net-file value="C:\Users\spata\source\repos\MatteoSpataro\SUMO-Virtual-Coupling\src\main\railvc2.net.xml"/>
    </input>

    <output>
        <output-file value="C:\Users\spata\source\repos\MatteoSpataro\SUMO-Virtual-Coupling\src\main\railvc2.net.xml"/>
    </output>

    <processing>
        <geometry.min-radius.fix.railways value="false"/>
        <geometry.max-grade.fix value="false"/>
        <offset.disable-normalization value="true"/>
        <lefthand value="false"/>
    </processing>

    <junctions>
        <no-turnarounds value="true"/>
        <junctions.corner-detail value="5"/>
        <junctions.limit-turn-speed value="5.5"/>
        <rectangular-lane-cut value="false"/>
    </junctions>

    <pedestrian>
        <walkingareas value="false"/>
    </pedestrian>

</configuration>
-->

<nodes version="1.9" xmlns:xsi="http://www.w3.org/2001/XMLSchema-instance" xsi:noNamespaceSchemaLocation="http://sumo.dlr.de/xsd/nodes_file.xsd">
    <location netOffset="0.00,0.00" convBoundary="-650.00,-300.00,400.00,400.00" origBoundary="-10000000000.00,-10000000000.00,10000000000.00,10000000000.00" projParameter="!"/>

    <node id="J0" x="-178.00" y="262.00" type="priority"/>
    <node id="e0" x="100.00" y="300.00" type="priority"/>
    <node id="e1" x="-450.00" y="400.00" type="dead_end"/>
    <node id="e10" x="400.00" y="200.00" type="priority"/>
    <node id="e11" x="400.00" y="-200.00" type="priority"/>
    <node id="e12" x="385.00" y="-250.00" type="priority"/>
    <node id="e13" x="350.00" y="-285.00" type="priority"/>
    <node id="e14" x="300.00" y="-300.00" type="priority"/>
    <node id="e15" x="-500.00" y="-300.00" type="priority"/>
    <node id="e16" x="-600.00" y="-270.00" type="priority"/>
    <node id="e17" x="-650.00" y="-170.00" type="priority"/>
    <node id="e18" x="-650.00" y="-140.00" type="priority"/>
    <node id="e19" x="-650.00" y="-110.00" type="priority"/>
    <node id="e2" x="-500.00" y="300.00" type="dead_end"/>
    <node id="e20" x="-650.00" y="130.00" type="priority"/>
    <node id="e21" x="-635.00" y="185.00" type="priority"/>
    <node id="e22" x="-605.00" y="230.00" type="priority"/>
    <node id="e23" x="-550.00" y="255.00" type="priority"/>
    <node id="e3" x="-500.00" y="200.00" type="dead_end"/>
    <node id="e4" x="-300.00" y="400.00" type="priority"/>
    <node id="e43" x="0.00" y="400.00" type="priority"/>
    <node id="e44" x="100.00" y="400.00" type="priority"/>
    <node id="e45" x="200.00" y="400.00" type="dead_end"/>
    <node id="e46" x="0.00" y="200.00" type="priority"/>
    <node id="e47" x="100.00" y="200.00" type="priority"/>
    <node id="e48" x="200.00" y="200.00" type="dead_end"/>
    <node id="e5" x="-300.00" y="200.00" type="priority"/>
    <node id="e6" x="-100.00" y="300.00" type="priority" rightOfWay="edgePriority" fringe="outer"/>
    <node id="e7" x="300.00" y="300.00" type="priority"/>
    <node id="e8" x="350.00" y="285.00" type="priority"/>
    <node id="e9" x="385.00" y="250.00" type="priority"/>
</nodes>
