<?xml version="1.0" encoding="UTF-8"?>

<!-- generated on 2022-12-08 10:37:56 by Eclipse SUMO netedit Version 1.14.1
<configuration xmlns:xsi="http://www.w3.org/2001/XMLSchema-instance" xsi:noNamespaceSchemaLocation="http://sumo.dlr.de/xsd/netconvertConfiguration.xsd">

    <input>
        <sumo-net-file value="C:\Users\spata\source\repos\MatteoSpataro\SUMO-Virtual-Coupling\src\main\railvc2.net.xml"/>
    </input>

    <output>
        <output-file value="C:\Users\spata\source\repos\MatteoSpataro\SUMO-Virtual-Coupling\src\main\railvc2.net.xml"/>
    </output>

    <processing>
        <geometry.min-radius.fix.railways value="false"/>
        <geometry.max-grade.fix value="false"/>
        <offset.disable-normalization value="true"/>
        <lefthand value="false"/>
    </processing>

    <junctions>
        <no-turnarounds value="true"/>
        <junctions.corner-detail value="5"/>
        <junctions.limit-turn-speed value="5.5"/>
        <rectangular-lane-cut value="false"/>
    </junctions>

    <pedestrian>
        <walkingareas value="false"/>
    </pedestrian>

</configuration>
-->

<connections version="1.9" xmlns:xsi="http://www.w3.org/2001/XMLSchema-instance" xsi:noNamespaceSchemaLocation="http://sumo.dlr.de/xsd/connections_file.xsd">
    <connection from="E0" to="E6" fromLane="0" toLane="0"/>

    <connection from="E1" to="E4" fromLane="0" toLane="0"/>

    <connection from="E10" to="E11" fromLane="0" toLane="0"/>

    <connection from="E11" to="E12" fromLane="0" toLane="0"/>

    <connection from="E12" to="E13" fromLane="0" toLane="0"/>

    <connection from="E13" to="E14" fromLane="0" toLane="0"/>

    <connection from="E14" to="E15" fromLane="0" toLane="0"/>

    <connection from="E15" to="E16" fromLane="0" toLane="0"/>

    <connection from="E16" to="E17" fromLane="0" toLane="0"/>

    <connection from="E17" to="E18" fromLane="0" toLane="0"/>

    <connection from="E18" to="E19" fromLane="0" toLane="0"/>

    <connection from="E19" to="E20" fromLane="0" toLane="0"/>

    <connection from="E2" to="E49" fromLane="0" toLane="0"/>
    <connection from="E2" to="E0" fromLane="0" toLane="0"/>
    <connection from="E2" to="E46" fromLane="0" toLane="0"/>

    <connection from="E20" to="E21" fromLane="0" toLane="0"/>

    <connection from="E21" to="E22" fromLane="0" toLane="0"/>

    <connection from="E22" to="E23" fromLane="0" toLane="0"/>

    <connection from="E23" to="E49" fromLane="0" toLane="0"/>
    <connection from="E23" to="E0" fromLane="0" toLane="0"/>
    <connection from="E23" to="E46" fromLane="0" toLane="0"/>

    <connection from="E3" to="E5" fromLane="0" toLane="0"/>

    <connection from="E4" to="E49" fromLane="0" toLane="0"/>
    <connection from="E4" to="E0" fromLane="0" toLane="0"/>
    <connection from="E4" to="E46" fromLane="0" toLane="0"/>

    <connection from="E46" to="E47" fromLane="0" toLane="0"/>

    <connection from="E47" to="E48" fromLane="0" toLane="0"/>

    <connection from="E49" to="E50" fromLane="0" toLane="0"/>

    <connection from="E5" to="E55" fromLane="0" toLane="0"/>

    <connection from="E50" to="E51" fromLane="0" toLane="0"/>

    <connection from="E55" to="E49" fromLane="0" toLane="0"/>
    <connection from="E55" to="E0" fromLane="0" toLane="0"/>
    <connection from="E55" to="E46" fromLane="0" toLane="0"/>

    <connection from="E6" to="E7" fromLane="0" toLane="0"/>

    <connection from="E7" to="E8" fromLane="0" toLane="0"/>

    <connection from="E8" to="E9" fromLane="0" toLane="0"/>

    <connection from="E9" to="E10" fromLane="0" toLane="0"/>

</connections>
