<?xml version="1.0" encoding="UTF-8"?>

<!-- generated on 2022-07-05 15:53:05 by Eclipse SUMO netedit Version 1.13.0
<configuration xmlns:xsi="http://www.w3.org/2001/XMLSchema-instance" xsi:noNamespaceSchemaLocation="http://sumo.dlr.de/xsd/netconvertConfiguration.xsd">

    <input>
        <sumo-net-file value="C:\Users\spata\source\repos\MatteoSpataro\SUMO-Virtual-Coupling\railvc2.net.xml"/>
    </input>

    <output>
        <output-file value="C:\Users\spata\source\repos\MatteoSpataro\SUMO-Virtual-Coupling\railvc2.net.xml"/>
    </output>

    <processing>
        <geometry.min-radius.fix.railways value="false"/>
        <geometry.max-grade.fix value="false"/>
        <offset.disable-normalization value="true"/>
        <lefthand value="false"/>
    </processing>

    <junctions>
        <no-turnarounds value="true"/>
        <junctions.corner-detail value="5"/>
        <junctions.limit-turn-speed value="5.5"/>
        <rectangular-lane-cut value="false"/>
    </junctions>

    <pedestrian>
        <walkingareas value="false"/>
    </pedestrian>

    <report>
        <aggregate-warnings value="5"/>
    </report>

</configuration>
-->

<net version="1.9" junctionCornerDetail="5" limitTurnSpeed="5.50" xmlns:xsi="http://www.w3.org/2001/XMLSchema-instance" xsi:noNamespaceSchemaLocation="http://sumo.dlr.de/xsd/net_file.xsd">

    <location netOffset="0.00,0.00" convBoundary="-640.00,-300.00,400.00,400.00" origBoundary="-10000000000.00,-10000000000.00,10000000000.00,10000000000.00" projParameter="!"/>

    <edge id=":e10_0" function="internal">
        <lane id=":e10_0_0" index="0" speed="25.00" length="0.94" shape="398.19,200.46 398.27,200.19 398.29,200.00 398.27,199.81 398.19,199.54"/>
    </edge>
    <edge id=":e11_0" function="internal">
        <lane id=":e11_0_0" index="0" speed="25.00" length="0.80" shape="383.70,151.23 383.63,151.01 383.56,150.86 383.46,150.73 383.30,150.56"/>
    </edge>
    <edge id=":e12_0" function="internal">
        <lane id=":e12_0_0" index="0" speed="25.50" length="0.80" shape="349.44,116.70 349.27,116.54 349.14,116.44 348.99,116.37 348.77,116.30"/>
    </edge>
    <edge id=":e13_0" function="internal">
        <lane id=":e13_0_0" index="0" speed="28.00" length="0.47" shape="299.99,101.67 299.86,101.63 299.76,101.61 299.67,101.60 299.53,101.60"/>
    </edge>
    <edge id=":e14_0" function="internal">
        <lane id=":e14_0_0" index="0" speed="28.50" length="0.47" shape="-400.00,101.60 -400.14,101.60 -400.23,101.59 -400.33,101.57 -400.46,101.53"/>
    </edge>
    <edge id=":e15_0" function="internal">
        <lane id=":e15_0_0" index="0" speed="26.50" length="0.80" shape="-450.46,86.53 -450.68,86.46 -450.83,86.39 -450.96,86.29 -451.13,86.13"/>
    </edge>
    <edge id=":e16_0" function="internal">
        <lane id=":e16_0_0" index="0" speed="25.50" length="0.80" shape="-486.13,51.13 -486.29,50.96 -486.39,50.83 -486.46,50.68 -486.53,50.46"/>
    </edge>
    <edge id=":e17_0" function="internal">
        <lane id=":e17_0_0" index="0" speed="25.00" length="0.94" shape="-501.53,0.46 -501.61,0.19 -501.63,-0.00 -501.61,-0.19 -501.53,-0.46"/>
    </edge>
    <edge id=":e18_0" function="internal">
        <lane id=":e18_0_0" index="0" speed="25.50" length="0.80" shape="-486.53,-50.46 -486.46,-50.68 -486.39,-50.83 -486.29,-50.96 -486.13,-51.13"/>
    </edge>
    <edge id=":e19_0" function="internal">
        <lane id=":e19_0_0" index="0" speed="26.50" length="0.80" shape="-451.13,-86.13 -450.96,-86.29 -450.83,-86.39 -450.68,-86.46 -450.46,-86.53"/>
    </edge>
    <edge id=":e20_0" function="internal">
        <lane id=":e20_0_0" index="0" speed="28.50" length="0.47" shape="-400.46,-101.53 -400.33,-101.57 -400.23,-101.59 -400.14,-101.60 -400.00,-101.60"/>
    </edge>
    <edge id=":e21_0" function="internal">
        <lane id=":e21_0_0" index="0" speed="30.00" length="0.47" shape="299.53,-101.60 299.67,-101.60 299.76,-101.61 299.86,-101.63 299.99,-101.67"/>
    </edge>
    <edge id=":e22_0" function="internal">
        <lane id=":e22_0_0" index="0" speed="30.00" length="0.80" shape="348.77,-116.30 348.99,-116.37 349.14,-116.44 349.27,-116.54 349.44,-116.70"/>
    </edge>
    <edge id=":e23_0" function="internal">
        <lane id=":e23_0_0" index="0" speed="30.00" length="0.80" shape="383.30,-150.56 383.46,-150.73 383.56,-150.86 383.63,-151.01 383.70,-151.23"/>
    </edge>
    <edge id=":e24_0" function="internal">
        <lane id=":e24_0_0" index="0" speed="30.00" length="0.94" shape="398.19,-199.54 398.27,-199.81 398.29,-200.00 398.27,-200.19 398.19,-200.46"/>
    </edge>
    <edge id=":e25_0" function="internal">
        <lane id=":e25_0_0" index="0" speed="30.00" length="0.80" shape="383.70,-248.77 383.63,-248.99 383.56,-249.14 383.46,-249.27 383.30,-249.44"/>
    </edge>
    <edge id=":e26_0" function="internal">
        <lane id=":e26_0_0" index="0" speed="30.00" length="0.80" shape="349.44,-283.30 349.27,-283.46 349.14,-283.56 348.99,-283.63 348.77,-283.70"/>
    </edge>
    <edge id=":e27_0" function="internal">
        <lane id=":e27_0_0" index="0" speed="29.00" length="0.47" shape="299.99,-298.33 299.86,-298.37 299.76,-298.39 299.67,-298.40 299.53,-298.40"/>
    </edge>
    <edge id=":e28_0" function="internal">
        <lane id=":e28_0_0" index="0" speed="8.65" length="7.45" shape="3.23,-298.40 1.91,-298.15 0.46,-297.40 -1.13,-296.15 -2.84,-294.39"/>
    </edge>
    <edge id=":e28_1" function="internal">
        <lane id=":e28_1_0" index="0" speed="27.50" length="7.87" shape="3.23,-298.40 -4.64,-298.40"/>
    </edge>
    <edge id=":e29_0" function="internal">
        <lane id=":e29_0_0" index="0" speed="29.00" length="0.61" shape="-78.80,-208.94 -78.93,-208.80 -79.02,-208.72 -79.12,-208.65 -79.28,-208.57"/>
    </edge>
    <edge id=":e30_0" function="internal">
        <lane id=":e30_0_0" index="0" speed="30.00" length="0.39" shape="-159.28,-168.57 -159.39,-168.52 -159.46,-168.49 -159.54,-168.46 -159.65,-168.44"/>
    </edge>
    <edge id=":e31_0" function="internal">
        <lane id=":e31_0_0" index="0" speed="30.00" length="0.35" shape="-249.65,-148.44 -249.75,-148.42 -249.82,-148.40 -249.90,-148.40 -250.00,-148.40"/>
    </edge>
    <edge id=":e33_0" function="internal">
        <lane id=":e33_0_0" index="0" speed="10.73" length="8.13" shape="-237.39,-298.40 -239.69,-298.15 -241.14,-297.42 -242.44,-296.23 -244.26,-294.62"/>
    </edge>
    <edge id=":e33_1" function="internal">
        <lane id=":e33_1_0" index="0" speed="28.50" length="8.18" shape="-237.39,-298.40 -245.57,-298.40"/>
    </edge>
    <edge id=":e34_0" function="internal">
        <lane id=":e34_0_0" index="0" speed="29.00" length="0.62" shape="-309.01,-243.74 -309.16,-243.63 -309.27,-243.56 -309.38,-243.51 -309.56,-243.46"/>
    </edge>
    <edge id=":e35_0" function="internal">
        <lane id=":e35_0_0" index="0" speed="30.00" length="0.45" shape="-379.56,-223.46 -379.69,-223.43 -379.78,-223.41 -379.87,-223.40 -380.00,-223.40"/>
    </edge>
    <edge id=":e37_0" function="internal">
        <lane id=":e37_0_0" index="0" speed="30.00" length="0.61" shape="-499.38,-298.40 -499.56,-298.40 -499.69,-298.38 -499.81,-298.35 -499.98,-298.29"/>
    </edge>
    <edge id=":e38_0" function="internal">
        <lane id=":e38_0_0" index="0" speed="4.24" length="1.26" shape="-598.20,-259.00 -598.54,-258.85 -598.75,-258.70 -598.91,-258.49 -599.07,-258.16"/>
    </edge>
    <edge id=":e39_0" function="internal">
        <lane id=":e39_0_0" index="0" speed="30.00" length="0.67" shape="-638.26,-169.97 -638.34,-169.79 -638.38,-169.66 -638.40,-169.52 -638.40,-169.32"/>
    </edge>
    <edge id=":e4_0" function="internal">
        <lane id=":e4_0_0" index="0" speed="13.00" length="0.75" shape="-300.76,398.40 -300.53,398.40 -300.38,398.38 -300.24,398.33 -300.04,398.23"/>
    </edge>
    <edge id=":e40_0" function="internal">
        <lane id=":e40_0_0" index="0" speed="25.50" length="12.00" shape="-638.40,67.91 -638.08,71.13 -637.25,73.69 -636.09,76.20 -634.77,79.23"/>
    </edge>
    <edge id=":e40_1" function="internal">
        <lane id=":e40_1_0" index="0" speed="30.00" length="11.99" shape="-638.40,67.91 -638.40,79.90"/>
    </edge>
    <edge id=":e41_0" function="internal">
        <lane id=":e41_0_0" index="0" speed="30.00" length="0.91" shape="-598.83,173.57 -598.73,173.81 -598.64,173.98 -598.51,174.11 -598.30,174.28"/>
    </edge>
    <edge id=":e42_0" function="internal">
        <lane id=":e42_0_0" index="0" speed="30.00" length="0.84" shape="-499.72,248.21 -499.52,248.35 -499.37,248.44 -499.20,248.48 -498.96,248.52"/>
    </edge>
    <edge id=":e5_0" function="internal">
        <lane id=":e5_0_0" index="0" speed="10.00" length="0.75" shape="-300.00,198.40 -299.78,198.40 -299.63,198.42 -299.48,198.47 -299.28,198.57"/>
    </edge>
    <edge id=":e6_0" function="internal">
        <lane id=":e6_0_0" index="0" speed="18.16" length="11.94" shape="-109.23,293.60 -106.37,295.29 -104.06,296.84 -101.66,297.96 -98.50,298.40"/>
    </edge>
    <edge id=":e6_1" function="internal">
        <lane id=":e6_1_0" index="0" speed="30.00" length="28.60" shape="-126.89,295.03 -121.06,295.82 -112.71,296.95 -104.35,297.96 -98.50,298.40"/>
    </edge>
    <edge id=":e6_2" function="internal">
        <lane id=":e6_2_0" index="0" speed="20.00" length="28.60" shape="-127.10,298.40 -98.50,298.40"/>
    </edge>
    <edge id=":e6_3" function="internal">
        <lane id=":e6_3_0" index="0" speed="16.79" length="10.19" shape="-107.78,302.10 -105.15,300.58 -103.34,299.41 -101.43,298.66 -98.50,298.40"/>
    </edge>
    <edge id=":e7_0" function="internal">
        <lane id=":e7_0_0" index="0" speed="28.00" length="0.47" shape="299.53,298.40 299.67,298.40 299.76,298.39 299.86,298.37 299.99,298.33"/>
    </edge>
    <edge id=":e8_0" function="internal">
        <lane id=":e8_0_0" index="0" speed="25.50" length="0.80" shape="348.77,283.70 348.99,283.63 349.14,283.56 349.27,283.46 349.44,283.30"/>
    </edge>
    <edge id=":e9_0" function="internal">
        <lane id=":e9_0_0" index="0" speed="25.00" length="0.80" shape="383.30,249.44 383.46,249.27 383.56,249.14 383.63,248.99 383.70,248.77"/>
    </edge>

    <edge id="E1" from="e1" to="e4" priority="3">
        <lane id="E1_0" index="0" speed="13.00" length="149.24" shape="-450.00,398.40 -300.76,398.40"/>
    </edge>
    <edge id="E10" from="e10" to="e11" priority="-1">
        <lane id="E10_0" index="0" speed="25.00" length="50.43" shape="398.19,199.54 383.70,151.23"/>
    </edge>
    <edge id="E11" from="e11" to="e12" priority="-1">
        <lane id="E11_0" index="0" speed="25.00" length="47.88" shape="383.30,150.56 349.44,116.70"/>
    </edge>
    <edge id="E12" from="e12" to="e13" priority="-1">
        <lane id="E12_0" index="0" speed="26.00" length="50.93" shape="348.77,116.30 299.99,101.67"/>
    </edge>
    <edge id="E13" from="e13" to="e14" priority="-1">
        <lane id="E13_0" index="0" speed="30.00" length="699.53" shape="299.53,101.60 -400.00,101.60"/>
    </edge>
    <edge id="E14" from="e14" to="e15" priority="-1">
        <lane id="E14_0" index="0" speed="27.00" length="52.20" shape="-400.46,101.53 -450.46,86.53"/>
    </edge>
    <edge id="E15" from="e15" to="e16" priority="-1">
        <lane id="E15_0" index="0" speed="26.00" length="49.50" shape="-451.13,86.13 -486.13,51.13"/>
    </edge>
    <edge id="E16" from="e16" to="e17" priority="-1">
        <lane id="E16_0" index="0" speed="25.00" length="52.20" shape="-486.53,50.46 -501.53,0.46"/>
    </edge>
    <edge id="E17" from="e17" to="e18" priority="-1">
        <lane id="E17_0" index="0" speed="25.00" length="52.20" shape="-501.53,-0.46 -486.53,-50.46"/>
    </edge>
    <edge id="E18" from="e18" to="e19" priority="-1">
        <lane id="E18_0" index="0" speed="26.00" length="49.50" shape="-486.13,-51.13 -451.13,-86.13"/>
    </edge>
    <edge id="E19" from="e19" to="e20" priority="-1">
        <lane id="E19_0" index="0" speed="27.00" length="52.20" shape="-450.46,-86.53 -400.46,-101.53"/>
    </edge>
    <edge id="E2" from="e2" to="e6" priority="2">
        <lane id="E2_0" index="0" speed="10.00" length="372.90" shape="-500.00,298.40 -127.10,298.40"/>
    </edge>
    <edge id="E20" from="e20" to="e21" priority="-1">
        <lane id="E20_0" index="0" speed="30.00" length="699.53" shape="-400.00,-101.60 299.53,-101.60"/>
    </edge>
    <edge id="E21" from="e21" to="e22" priority="-1">
        <lane id="E21_0" index="0" speed="30.00" length="50.93" shape="299.99,-101.67 348.77,-116.30"/>
    </edge>
    <edge id="E22" from="e22" to="e23" priority="-1">
        <lane id="E22_0" index="0" speed="30.00" length="47.88" shape="349.44,-116.70 383.30,-150.56"/>
    </edge>
    <edge id="E23" from="e23" to="e24" priority="-1">
        <lane id="E23_0" index="0" speed="30.00" length="50.43" shape="383.70,-151.23 398.19,-199.54"/>
    </edge>
    <edge id="E24" from="e24" to="e25" priority="-1">
        <lane id="E24_0" index="0" speed="30.00" length="50.43" shape="398.19,-200.46 383.70,-248.77"/>
    </edge>
    <edge id="E25" from="e25" to="e26" priority="-1">
        <lane id="E25_0" index="0" speed="30.00" length="47.88" shape="383.30,-249.44 349.44,-283.30"/>
    </edge>
    <edge id="E26" from="e26" to="e27" priority="-1">
        <lane id="E26_0" index="0" speed="30.00" length="50.93" shape="348.77,-283.70 299.99,-298.33"/>
    </edge>
    <edge id="E27" from="e27" to="e28" priority="-1" spreadType="roadCenter">
        <lane id="E27_0" index="0" speed="28.00" length="296.30" shape="299.53,-298.40 3.23,-298.40"/>
    </edge>
    <edge id="E28" from="e28" to="e29" priority="-1" spreadType="roadCenter">
        <lane id="E28_0" index="0" speed="28.00" length="114.34" shape="-2.84,-294.39 -78.80,-208.94"/>
    </edge>
    <edge id="E29" from="e29" to="e30" priority="-1" spreadType="roadCenter">
        <lane id="E29_0" index="0" speed="30.00" length="89.44" shape="-79.28,-208.57 -159.28,-168.57"/>
    </edge>
    <edge id="E3" from="e3" to="e5" priority="1">
        <lane id="E3_0" index="0" speed="10.00" length="200.00" shape="-500.00,198.40 -300.00,198.40"/>
    </edge>
    <edge id="E30" from="e30" to="e31" priority="-1" spreadType="roadCenter">
        <lane id="E30_0" index="0" speed="30.00" length="92.20" shape="-159.65,-168.44 -249.65,-148.44"/>
    </edge>
    <edge id="E31" from="e31" to="e32" priority="-1" spreadType="roadCenter">
        <lane id="E31_0" index="0" speed="30.00" length="250.00" shape="-250.00,-148.40 -500.00,-148.40"/>
    </edge>
    <edge id="E32" from="e28" to="e33" priority="-1" spreadType="roadCenter">
        <lane id="E32_0" index="0" speed="27.00" length="232.75" shape="-4.64,-298.40 -237.39,-298.40"/>
    </edge>
    <edge id="E33" from="e33" to="e34" priority="-1" spreadType="roadCenter">
        <lane id="E33_0" index="0" speed="28.00" length="82.34" shape="-244.26,-294.62 -309.01,-243.74"/>
    </edge>
    <edge id="E34" from="e34" to="e35" priority="-1" spreadType="roadCenter">
        <lane id="E34_0" index="0" speed="30.00" length="72.80" shape="-309.56,-243.46 -379.56,-223.46"/>
    </edge>
    <edge id="E35" from="e35" to="e36" priority="-1" spreadType="roadCenter">
        <lane id="E35_0" index="0" speed="30.00" length="120.00" shape="-380.00,-223.40 -500.00,-223.40"/>
    </edge>
    <edge id="E36" from="e33" to="e37" priority="-1" spreadType="roadCenter">
        <lane id="E36_0" index="0" speed="30.00" length="253.81" shape="-245.57,-298.40 -499.38,-298.40"/>
    </edge>
    <edge id="E37" from="e37" to="e38" priority="-1">
        <lane id="E37_0" index="0" speed="30.00" length="105.79" shape="-499.98,-298.29 -598.20,-259.00"/>
    </edge>
    <edge id="E38" from="e38" to="e39" priority="-1">
        <lane id="E38_0" index="0" speed="30.00" length="96.51" shape="-599.07,-258.16 -638.26,-169.97"/>
    </edge>
    <edge id="E39" from="e39" to="e40" priority="-1">
        <lane id="E39_0" index="0" speed="30.00" length="237.23" shape="-638.40,-169.32 -638.40,67.91"/>
    </edge>
    <edge id="E4" from="e4" to="e6" priority="3">
        <lane id="E4_0" index="0" speed="13.00" length="214.95" shape="-300.04,398.23 -107.78,302.10"/>
    </edge>
    <edge id="E40" from="e40" to="e41" priority="-1">
        <lane id="E40_0" index="0" speed="30.00" length="100.95" shape="-634.77,79.23 -598.83,173.57"/>
    </edge>
    <edge id="E41" from="e41" to="e42" priority="-1">
        <lane id="E41_0" index="0" speed="30.00" length="123.22" shape="-598.30,174.28 -499.72,248.21"/>
    </edge>
    <edge id="E42" from="e42" to="e6" priority="4">
        <lane id="E42_0" index="0" speed="30.00" length="374.96" shape="-498.96,248.52 -126.89,295.03"/>
    </edge>
    <edge id="E43" from="e40" to="e43" priority="-1">
        <lane id="E43_0" index="0" speed="30.00" length="130.10" shape="-638.40,79.90 -638.40,210.00"/>
    </edge>
    <edge id="E5" from="e5" to="e6" priority="1">
        <lane id="E5_0" index="0" speed="10.00" length="212.49" shape="-299.28,198.57 -109.23,293.60"/>
    </edge>
    <edge id="E6" from="e6" to="e7" priority="-1" spreadType="roadCenter">
        <lane id="E6_0" index="0" speed="30.00" length="398.03" shape="-98.50,298.40 299.53,298.40"/>
    </edge>
    <edge id="E7" from="e7" to="e8" priority="-1">
        <lane id="E7_0" index="0" speed="26.00" length="50.93" shape="299.99,298.33 348.77,283.70"/>
    </edge>
    <edge id="E8" from="e8" to="e9" priority="-1">
        <lane id="E8_0" index="0" speed="25.00" length="47.88" shape="349.44,283.30 383.30,249.44"/>
    </edge>
    <edge id="E9" from="e9" to="e10" priority="-1">
        <lane id="E9_0" index="0" speed="25.00" length="50.43" shape="383.70,248.77 398.19,200.46"/>
    </edge>

    <junction id="e1" type="dead_end" x="-450.00" y="400.00" incLanes="" intLanes="" shape="-450.00,400.00 -450.00,396.80"/>
    <junction id="e10" type="priority" x="400.00" y="200.00" incLanes="E9_0" intLanes=":e10_0_0" shape="399.72,199.08 396.66,200.00 399.72,200.92 399.90,200.25 399.92,200.00 399.90,199.75 399.83,199.46">
        <request index="0" response="0" foes="0" cont="0"/>
    </junction>
    <junction id="e11" type="priority" x="385.00" y="150.00" incLanes="E10_0" intLanes=":e11_0_0" shape="382.17,151.69 385.23,150.77 385.05,150.21 384.95,150.03 384.83,149.86 384.67,149.67 384.43,149.43">
        <request index="0" response="0" foes="0" cont="0"/>
    </junction>
    <junction id="e12" type="priority" x="350.00" y="115.00" incLanes="E11_0" intLanes=":e12_0_0" shape="348.31,117.83 350.57,115.57 350.14,115.17 349.97,115.05 349.79,114.95 349.55,114.87 349.23,114.77">
        <request index="0" response="0" foes="0" cont="0"/>
    </junction>
    <junction id="e13" type="priority" x="300.00" y="100.00" incLanes="E12_0" intLanes=":e13_0_0" shape="299.53,103.20 300.45,100.13 300.12,100.04 300.00,100.02 299.88,100.01 299.73,100.00 299.53,100.00">
        <request index="0" response="0" foes="0" cont="0"/>
    </junction>
    <junction id="e14" type="priority" x="-400.00" y="100.00" incLanes="E13_0" intLanes=":e14_0_0" shape="-400.00,103.20 -400.00,100.00 -400.92,103.07 -400.59,103.16 -400.47,103.18 -400.35,103.19 -400.20,103.20">
        <request index="0" response="0" foes="0" cont="0"/>
    </junction>
    <junction id="e15" type="priority" x="-450.00" y="85.00" incLanes="E14_0" intLanes=":e15_0_0" shape="-450.92,88.07 -450.00,85.00 -452.26,87.26 -451.84,87.67 -451.66,87.79 -451.48,87.88 -451.24,87.97">
        <request index="0" response="0" foes="0" cont="0"/>
    </junction>
    <junction id="e16" type="priority" x="-485.00" y="50.00" incLanes="E15_0" intLanes=":e16_0_0" shape="-487.26,52.26 -485.00,50.00 -488.07,50.92 -487.88,51.48 -487.79,51.66 -487.67,51.84 -487.50,52.02">
        <request index="0" response="0" foes="0" cont="0"/>
    </junction>
    <junction id="e17" type="priority" x="-500.00" y="0.00" incLanes="E16_0" intLanes=":e17_0_0" shape="-503.07,0.92 -500.00,-0.00 -503.07,-0.92 -503.24,-0.25 -503.26,0.00 -503.24,0.25 -503.18,0.54">
        <request index="0" response="0" foes="0" cont="0"/>
    </junction>
    <junction id="e18" type="priority" x="-485.00" y="-50.00" incLanes="E17_0" intLanes=":e18_0_0" shape="-485.00,-50.00 -487.26,-52.26 -487.67,-51.84 -487.79,-51.66 -487.88,-51.48 -487.97,-51.24 -488.07,-50.92">
        <request index="0" response="0" foes="0" cont="0"/>
    </junction>
    <junction id="e19" type="priority" x="-450.00" y="-85.00" incLanes="E18_0" intLanes=":e19_0_0" shape="-450.00,-85.00 -450.92,-88.07 -451.48,-87.88 -451.66,-87.79 -451.84,-87.67 -452.02,-87.50 -452.26,-87.26">
        <request index="0" response="0" foes="0" cont="0"/>
    </junction>
    <junction id="e2" type="dead_end" x="-500.00" y="300.00" incLanes="" intLanes="" shape="-500.00,300.00 -500.00,296.80"/>
    <junction id="e20" type="priority" x="-400.00" y="-100.00" incLanes="E19_0" intLanes=":e20_0_0" shape="-400.00,-100.00 -400.00,-103.20 -400.35,-103.19 -400.47,-103.18 -400.59,-103.16 -400.73,-103.12 -400.92,-103.07">
        <request index="0" response="0" foes="0" cont="0"/>
    </junction>
    <junction id="e21" type="priority" x="300.00" y="-100.00" incLanes="E20_0" intLanes=":e21_0_0" shape="300.45,-100.13 299.53,-103.20 299.53,-100.00 299.88,-100.01 300.00,-100.02 300.12,-100.04 300.26,-100.08">
        <request index="0" response="0" foes="0" cont="0"/>
    </junction>
    <junction id="e22" type="priority" x="350.00" y="-115.00" incLanes="E21_0" intLanes=":e22_0_0" shape="350.57,-115.57 348.31,-117.83 349.23,-114.77 349.79,-114.95 349.97,-115.05 350.14,-115.17 350.33,-115.33">
        <request index="0" response="0" foes="0" cont="0"/>
    </junction>
    <junction id="e23" type="priority" x="385.00" y="-150.00" incLanes="E22_0" intLanes=":e23_0_0" shape="385.23,-150.77 382.17,-151.69 384.43,-149.43 384.83,-149.86 384.95,-150.03 385.05,-150.21 385.13,-150.45">
        <request index="0" response="0" foes="0" cont="0"/>
    </junction>
    <junction id="e24" type="priority" x="400.00" y="-200.00" incLanes="E23_0" intLanes=":e24_0_0" shape="399.72,-200.92 396.66,-200.00 399.72,-199.08 399.90,-199.75 399.92,-200.00 399.90,-200.25 399.83,-200.54">
        <request index="0" response="0" foes="0" cont="0"/>
    </junction>
    <junction id="e25" type="priority" x="385.00" y="-250.00" incLanes="E24_0" intLanes=":e25_0_0" shape="382.17,-248.31 385.23,-249.23 385.05,-249.79 384.95,-249.97 384.83,-250.14 384.67,-250.33 384.43,-250.57">
        <request index="0" response="0" foes="0" cont="0"/>
    </junction>
    <junction id="e26" type="priority" x="350.00" y="-285.00" incLanes="E25_0" intLanes=":e26_0_0" shape="348.31,-282.17 350.57,-284.43 350.14,-284.83 349.97,-284.95 349.79,-285.05 349.55,-285.13 349.23,-285.23">
        <request index="0" response="0" foes="0" cont="0"/>
    </junction>
    <junction id="e27" type="priority" x="300.00" y="-300.00" incLanes="E26_0" intLanes=":e27_0_0" shape="299.53,-296.80 300.45,-299.87 300.12,-299.96 300.00,-299.98 299.88,-299.99 299.73,-300.00 299.53,-300.00">
        <request index="0" response="0" foes="0" cont="0"/>
    </junction>
    <junction id="e28" type="priority" x="0.00" y="-300.00" incLanes="E27_0" intLanes=":e28_0_0 :e28_1_0" shape="3.23,-296.80 3.23,-300.00 -4.64,-300.00 -4.64,-296.80 -3.78,-296.65 -3.59,-296.46 -3.57,-296.20 -3.72,-295.87 -4.04,-295.46 -1.65,-293.33 0.27,-295.26 1.12,-295.93 1.89,-296.41 2.60,-296.70">
        <request index="0" response="00" foes="00" cont="0"/>
        <request index="1" response="00" foes="00" cont="0"/>
    </junction>
    <junction id="e29" type="priority" x="-80.00" y="-210.00" incLanes="E28_0" intLanes=":e29_0_0" shape="-77.61,-207.87 -80.00,-210.00 -78.57,-207.14 -78.17,-207.35 -78.04,-207.44 -77.92,-207.54 -77.78,-207.68">
        <request index="0" response="0" foes="0" cont="0"/>
    </junction>
    <junction id="e3" type="dead_end" x="-500.00" y="200.00" incLanes="" intLanes="" shape="-500.00,200.00 -500.00,196.80"/>
    <junction id="e30" type="priority" x="-160.00" y="-170.00" incLanes="E29_0" intLanes=":e30_0_0" shape="-158.57,-167.14 -160.00,-170.00 -159.31,-166.88 -159.02,-166.94 -158.93,-166.97 -158.83,-167.01 -158.72,-167.06">
        <request index="0" response="0" foes="0" cont="0"/>
    </junction>
    <junction id="e31" type="priority" x="-250.00" y="-150.00" incLanes="E30_0" intLanes=":e31_0_0" shape="-249.31,-146.88 -250.00,-150.00 -250.00,-146.80 -249.74,-146.80 -249.65,-146.81 -249.56,-146.82 -249.45,-146.84">
        <request index="0" response="0" foes="0" cont="0"/>
    </junction>
    <junction id="e32" type="dead_end" x="-500.00" y="-150.00" incLanes="E31_0" intLanes="" shape="-500.00,-146.80 -500.00,-150.00"/>
    <junction id="e33" type="priority" x="-240.00" y="-300.00" incLanes="E32_0" intLanes=":e33_0_0 :e33_1_0" shape="-237.39,-296.80 -237.39,-300.00 -245.57,-300.00 -245.57,-296.80 -244.87,-296.70 -244.74,-296.57 -244.76,-296.39 -244.93,-296.16 -245.25,-295.87 -243.28,-293.36 -241.32,-295.19 -240.61,-295.87 -239.84,-296.38 -238.83,-296.69">
        <request index="0" response="00" foes="00" cont="0"/>
        <request index="1" response="00" foes="00" cont="0"/>
    </junction>
    <junction id="e34" type="priority" x="-310.00" y="-245.00" incLanes="E33_0" intLanes=":e34_0_0" shape="-308.02,-242.48 -310.00,-245.00 -309.12,-241.92 -308.68,-242.06 -308.53,-242.12 -308.39,-242.21 -308.23,-242.32">
        <request index="0" response="0" foes="0" cont="0"/>
    </junction>
    <junction id="e35" type="priority" x="-380.00" y="-225.00" incLanes="E34_0" intLanes=":e35_0_0" shape="-379.12,-221.92 -380.00,-225.00 -380.00,-221.80 -379.67,-221.80 -379.55,-221.82 -379.44,-221.84 -379.30,-221.87">
        <request index="0" response="0" foes="0" cont="0"/>
    </junction>
    <junction id="e36" type="dead_end" x="-500.00" y="-225.00" incLanes="E35_0" intLanes="" shape="-500.00,-221.80 -500.00,-225.00"/>
    <junction id="e37" type="priority" x="-500.00" y="-300.00" incLanes="E36_0" intLanes=":e37_0_0" shape="-499.38,-296.80 -499.38,-300.00 -499.84,-299.99 -499.99,-299.97 -500.15,-299.93 -500.33,-299.87 -500.57,-299.77">
        <request index="0" response="0" foes="0" cont="0"/>
    </junction>
    <junction id="e38" type="priority" x="-600.00" y="-260.00" incLanes="E37_0" intLanes=":e38_0_0" shape="-597.60,-257.51 -598.79,-260.48 -599.63,-260.10 -599.90,-259.89 -600.11,-259.63 -600.31,-259.29 -600.53,-258.81">
        <request index="0" response="0" foes="0" cont="0"/>
    </junction>
    <junction id="e39" type="priority" x="-640.00" y="-170.00" incLanes="E38_0" intLanes=":e39_0_0" shape="-640.00,-169.32 -636.80,-169.32 -639.72,-170.62 -639.92,-170.16 -639.96,-169.99 -639.99,-169.82 -640.00,-169.61">
        <request index="0" response="0" foes="0" cont="0"/>
    </junction>
    <junction id="e4" type="priority" x="-300.00" y="400.00" incLanes="E1_0" intLanes=":e4_0_0" shape="-299.32,399.66 -300.76,396.80 -300.76,400.00 -300.20,399.99 -300.01,399.95 -299.82,399.90 -299.61,399.80">
        <request index="0" response="0" foes="0" cont="0"/>
    </junction>
    <junction id="e40" type="priority" x="-640.00" y="70.00" incLanes="E39_0" intLanes=":e40_0_0 :e40_1_0" shape="-640.00,79.90 -636.80,79.90 -636.27,79.80 -633.28,78.66 -634.24,76.42 -635.08,74.78 -635.79,73.43 -636.33,72.04 -636.68,70.30 -636.80,67.91 -640.00,67.91">
        <request index="0" response="00" foes="00" cont="0"/>
        <request index="1" response="00" foes="00" cont="0"/>
    </junction>
    <junction id="e41" type="priority" x="-600.00" y="175.00" incLanes="E40_0" intLanes=":e41_0_0" shape="-599.26,175.56 -597.34,173.00 -600.33,174.13 -600.07,174.75 -599.94,174.96 -599.78,175.13 -599.56,175.32">
        <request index="0" response="0" foes="0" cont="0"/>
    </junction>
    <junction id="e42" type="priority" x="-500.00" y="250.00" incLanes="E41_0" intLanes=":e42_0_0" shape="-499.16,250.11 -498.76,246.93 -500.68,249.49 -500.17,249.85 -499.98,249.94 -499.77,250.01 -499.51,250.06">
        <request index="0" response="0" foes="0" cont="0"/>
    </junction>
    <junction id="e43" type="dead_end" x="-640.00" y="210.00" incLanes="E43_0" intLanes="" shape="-636.80,210.00 -640.00,210.00"/>
    <junction id="e5" type="priority" x="-300.00" y="200.00" incLanes="E3_0" intLanes=":e5_0_0" shape="-300.00,200.00 -298.57,197.14 -299.07,196.90 -299.26,196.85 -299.45,196.81 -299.68,196.80 -300.00,196.80">
        <request index="0" response="0" foes="0" cont="0"/>
    </junction>
    <junction id="e6" type="priority" x="-100.00" y="300.00" incLanes="E5_0 E42_0 E2_0 E4_0" intLanes=":e6_0_0 :e6_1_0 :e6_2_0 :e6_3_0" shape="-98.50,300.00 -98.50,296.80 -100.81,296.63 -102.45,296.15 -103.72,295.41 -104.95,294.46 -106.44,293.37 -108.51,292.17 -109.94,295.03 -111.21,295.15 -113.46,294.97 -116.79,294.62 -121.20,294.11 -126.69,293.44 -127.09,296.61 -127.10,296.80 -127.10,300.00 -121.04,300.02 -116.17,300.07 -112.48,300.17 -109.97,300.30 -108.64,300.47 -108.50,300.67 -107.07,303.53 -105.31,302.55 -104.03,301.70 -102.97,300.99 -101.86,300.46 -100.46,300.12" rightOfWay="edgePriority" fringe="outer">
        <request index="0" response="1110" foes="1110" cont="0"/>
        <request index="1" response="0000" foes="1101" cont="0"/>
        <request index="2" response="1010" foes="1011" cont="0"/>
        <request index="3" response="0010" foes="0111" cont="0"/>
    </junction>
    <junction id="e7" type="priority" x="300.00" y="300.00" incLanes="E6_0" intLanes=":e7_0_0" shape="300.45,299.87 299.53,296.80 299.53,300.00 299.88,299.99 300.00,299.98 300.12,299.96 300.26,299.92">
        <request index="0" response="0" foes="0" cont="0"/>
    </junction>
    <junction id="e8" type="priority" x="350.00" y="285.00" incLanes="E7_0" intLanes=":e8_0_0" shape="350.57,284.43 348.31,282.17 349.23,285.23 349.79,285.05 349.97,284.95 350.14,284.83 350.33,284.67">
        <request index="0" response="0" foes="0" cont="0"/>
    </junction>