<routes>
	<vType id="rail1" priority="4" vClass="rail" length="100" accel="0.7" decel="0.7" sigma="1.0" maxSpeed="30" guiShape="rail" color="1,1,0"/>
	<vType id="rail2" priority="3" vClass="rail" length="100" accel="0.7" decel="0.7" sigma="1.0" maxSpeed="30" guiShape="rail" color="1,0,0"/>
	<vType id="rail3" priority="2" vClass="rail" length="100" accel="0.7" decel="0.7" sigma="1.0" maxSpeed="30" guiShape="rail" color="0,1,0"/>

	<route id="route1" edges="E1 E4 E6"/>
	<route id="route2" edges="E2 E6"/>
	<route id="route3" edges="E3 E5 E6"/>

	<vehicle id="1" type="rail1" route="route1" depart="0" />
	<vehicle id="2" type="rail2" route="route2" depart="0" />
	<vehicle id="3" type="rail3" route="route3" depart="0" />
</routes>