<routes>
	<vType id="rail1" priority="4" vClass="rail" length="100" accel="0.7" decel="0.7" sigma="1.0" maxSpeed="30" guiShape="rail" color="1,1,0"/>
	<vType id="rail2" priority="3" vClass="rail" length="100" accel="0.7" decel="0.7" sigma="1.0" maxSpeed="30" guiShape="rail" color="1,0,0"/>
	<vType id="rail3" priority="2" vClass="rail" length="100" accel="0.7" decel="0.7" sigma="1.0" maxSpeed="30" guiShape="rail" color="0,1,0"/>

	<route id="route1" edges="E1 E4 E6"/>
	<route id="route2" edges="E2 E6"/>
	<route id="route3" edges="E3 E5 E6"/>

	<vehicle id="1" type="rail1" route="route1" depart="0" />
	<vehicle id="2" type="rail2" route="route2" depart="0" />
	<vehicle id="3" type="rail3" route="route3" depart="0" />
<vType id="rail4" priority="1" vClass="rail" length="100" accel="0.7" decel="0.7" sigma="1.0" maxSpeed="30" guiShape="rail" color="0,1,1"/>
<vehicle id="4" type="rail4" route="route3" depart="21" />
<vType id="rail5" priority="1" vClass="rail" length="100" accel="0.7" decel="0.7" sigma="1.0" maxSpeed="30" guiShape="rail" color="0.1,0.3,1"/>
<vehicle id="5" type="rail5" route="route3" depart="43" />
<vType id="rail6" priority="1" vClass="rail" length="100" accel="0.7" decel="0.7" sigma="1.0" maxSpeed="30" guiShape="rail" color="1,0,1"/>
<vehicle id="6" type="rail6" route="route3" depart="65" />
<vType id="rail7" priority="1" vClass="rail" length="100" accel="0.7" decel="0.7" sigma="1.0" maxSpeed="30" guiShape="rail" color="0.3,0.9,0.9"/>
<vehicle id="7" type="rail7" route="route3" depart="87" />
<vType id="rail8" priority="1" vClass="rail" length="100" accel="0.7" decel="0.7" sigma="1.0" maxSpeed="30" guiShape="rail" color="1,0.5,0"/>
<vehicle id="8" type="rail8" route="route3" depart="109" />
<vType id="rail9" priority="1" vClass="rail" length="100" accel="0.7" decel="0.7" sigma="1.0" maxSpeed="30" guiShape="rail" color="1,0.2,0.2"/>
<vehicle id="9" type="rail9" route="route3" depart="131" />
<vType id="rail10" priority="1" vClass="rail" length="100" accel="0.7" decel="0.7" sigma="1.0" maxSpeed="30" guiShape="rail" color="0.9,0.9,0.9"/>
<vehicle id="10" type="rail10" route="route3" depart="153" />
<vType id="rail11" priority="1" vClass="rail" length="100" accel="0.7" decel="0.7" sigma="1.0" maxSpeed="30" guiShape="rail" color="1,1,0"/>
<vehicle id="11" type="rail11" route="route3" depart="175" />
<vType id="rail12" priority="1" vClass="rail" length="100" accel="0.7" decel="0.7" sigma="1.0" maxSpeed="30" guiShape="rail" color="1,0,0"/>
<vehicle id="12" type="rail12" route="route3" depart="197" />
<vType id="rail13" priority="1" vClass="rail" length="100" accel="0.7" decel="0.7" sigma="1.0" maxSpeed="30" guiShape="rail" color="0,1,0"/>
<vehicle id="13" type="rail13" route="route3" depart="219" />
<vType id="rail14" priority="1" vClass="rail" length="100" accel="0.7" decel="0.7" sigma="1.0" maxSpeed="30" guiShape="rail" color="0,1,1"/>
<vehicle id="14" type="rail14" route="route3" depart="241" />
<vType id="rail15" priority="1" vClass="rail" length="100" accel="0.7" decel="0.7" sigma="1.0" maxSpeed="30" guiShape="rail" color="0.1,0.3,1"/>
<vehicle id="15" type="rail15" route="route3" depart="263" />
<vType id="rail16" priority="1" vClass="rail" length="100" accel="0.7" decel="0.7" sigma="1.0" maxSpeed="30" guiShape="rail" color="1,0,1"/>
<vehicle id="16" type="rail16" route="route3" depart="285" />
</routes>