<?xml version="1.0" encoding="UTF-8"?>

<!-- generated on 2022-05-12 09:44:00 by Eclipse SUMO netedit Version 1.13.0
<configuration xmlns:xsi="http://www.w3.org/2001/XMLSchema-instance" xsi:noNamespaceSchemaLocation="http://sumo.dlr.de/xsd/netconvertConfiguration.xsd">

    <input>
        <sumo-net-file value="railvc.net.xml"/>
    </input>

    <output>
        <output-file value="railvc.net.xml"/>
    </output>

    <processing>
        <geometry.min-radius.fix.railways value="false"/>
        <geometry.max-grade.fix value="false"/>
        <offset.disable-normalization value="true"/>
        <lefthand value="false"/>
    </processing>

    <junctions>
        <no-turnarounds value="true"/>
        <junctions.corner-detail value="5"/>
        <junctions.limit-turn-speed value="5.5"/>
        <rectangular-lane-cut value="false"/>
    </junctions>

    <pedestrian>
        <walkingareas value="false"/>
    </pedestrian>

    <report>
        <aggregate-warnings value="5"/>
    </report>

</configuration>
-->

<net version="1.9" junctionCornerDetail="5" limitTurnSpeed="5.50" xmlns:xsi="http://www.w3.org/2001/XMLSchema-instance" xsi:noNamespaceSchemaLocation="http://sumo.dlr.de/xsd/net_file.xsd">

    <location netOffset="0.00,0.00" convBoundary="-190.00,-520.00,1000.00,50.00" origBoundary="-10000000000.00,-10000000000.00,10000000000.00,10000000000.00" projParameter="!"/>

    <edge id=":e1_0" function="internal">
        <lane id=":e1_0_0" index="0" allow="rail" speed="18" length="1.10" shape="0.12,48.05 0.38,48.24 0.58,48.35 0.80,48.39 1.12,48.40"/>
    </edge>
    <edge id=":e10_0" function="internal">
        <lane id=":e10_0_0" index="0" allow="rail" speed="30.00" length="0.65" shape="948.70,-398.86 948.64,-399.04 948.58,-399.16 948.50,-399.26 948.38,-399.41"/>
    </edge>
    <edge id=":e11_0" function="internal">
        <lane id=":e11_0_0" index="0" allow="rail" speed="30.00" length="0.41" shape="899.09,-453.62 899.01,-453.71 898.95,-453.77 898.88,-453.82 898.78,-453.88"/>
    </edge>
    <edge id=":e12_0" function="internal">
        <lane id=":e12_0_0" index="0" allow="rail" speed="30.00" length="0.93" shape="799.92,-518.14 799.69,-518.29 799.51,-518.36 799.33,-518.39 799.05,-518.40"/>
    </edge>
    <edge id=":e13_0" function="internal">
        <lane id=":e13_0_0" index="0" allow="rail" speed="30.00" length="0.93" shape="0.95,-518.40 0.67,-518.39 0.49,-518.36 0.31,-518.29 0.08,-518.14"/>
    </edge>
    <edge id=":e14_0" function="internal">
        <lane id=":e14_0_0" index="0" allow="rail" speed="30.00" length="0.41" shape="-98.78,-453.88 -98.88,-453.82 -98.95,-453.77 -99.01,-453.71 -99.09,-453.62"/>
    </edge>
    <edge id=":e15_0" function="internal">
        <lane id=":e15_0_0" index="0" allow="rail" speed="30.00" length="0.65" shape="-148.38,-399.41 -148.50,-399.26 -148.58,-399.16 -148.64,-399.04 -148.70,-398.86"/>
    </edge>
    <edge id=":e16_0" function="internal">
        <lane id=":e16_0_0" index="0" allow="rail" speed="30.00" length="0.27" shape="-174.40,-324.73 -174.42,-324.66 -174.44,-324.60 -174.45,-324.55 -174.47,-324.47"/>
    </edge>
    <edge id=":e17_0" function="internal">
        <lane id=":e17_0_0" index="0" allow="rail" speed="30.00" length="0.53" shape="-188.34,-240.26 -188.36,-240.11 -188.37,-240.00 -188.36,-239.89 -188.33,-239.74"/>
    </edge>
    <edge id=":e18_0" function="internal">
        <lane id=":e18_0_0" index="0" allow="rail" speed="30.00" length="0.34" shape="-174.48,-156.60 -174.46,-156.50 -174.45,-156.43 -174.42,-156.37 -174.39,-156.27"/>
    </edge>
    <edge id=":e19_0" function="internal">
        <lane id=":e19_0_0" index="0" allow="rail" speed="30.00" length="0.51" shape="-148.70,-91.07 -148.64,-90.93 -148.60,-90.83 -148.54,-90.75 -148.44,-90.63"/>
    </edge>
    <edge id=":e2_0" function="internal">
        <lane id=":e2_0_0" index="0" allow="rail" speed="30.00" length="0.10" shape="307.00,48.40 307.00,48.40"/>
    </edge>
    <edge id=":e20_0" function="internal">
        <lane id=":e20_0_0" index="0" allow="rail" speed="30.00" length="0.32" shape="-98.98,-31.27 -98.92,-31.20 -98.87,-31.15 -98.82,-31.11 -98.75,-31.05"/>
    </edge>
    <edge id=":e3_0" function="internal">
        <lane id=":e3_0_0" index="0" allow="rail" speed="26.44" length="8.07" shape="797.38,48.40 799.65,48.15 801.09,47.42 802.38,46.23 804.17,44.61"/>
    </edge>
    <edge id=":e3_1" function="internal">
        <lane id=":e3_1_0" index="0" allow="rail" speed="30.00" length="8.12" shape="797.38,48.40 805.50,48.40"/>
    </edge>
    <edge id=":e5_0" function="internal">
        <lane id=":e5_0_0" index="0" allow="rail" speed="30.00" length="0.32" shape="898.75,-31.05 898.82,-31.11 898.87,-31.15 898.92,-31.20 898.98,-31.27"/>
    </edge>
    <edge id=":e6_0" function="internal">
        <lane id=":e6_0_0" index="0" allow="rail" speed="30.00" length="0.51" shape="948.44,-90.63 948.54,-90.75 948.60,-90.83 948.64,-90.93 948.70,-91.07"/>
    </edge>
    <edge id=":e7_0" function="internal">
        <lane id=":e7_0_0" index="0" allow="rail" speed="30.00" length="0.34" shape="974.39,-156.27 974.42,-156.37 974.45,-156.43 974.46,-156.50 974.48,-156.60"/>
    </edge>
    <edge id=":e8_0" function="internal">
        <lane id=":e8_0_0" index="0" allow="rail" speed="30.00" length="0.53" shape="988.33,-239.74 988.36,-239.89 988.37,-240.00 988.36,-240.11 988.34,-240.26"/>
    </edge>
    <edge id=":e9_0" function="internal">
        <lane id=":e9_0_0" index="0" allow="rail" speed="30.00" length="0.27" shape="974.47,-324.47 974.45,-324.55 974.44,-324.60 974.42,-324.66 974.40,-324.73"/>
    </edge>

    <edge id="E1" from="e1" to="e2" priority="-1">
        <lane id="E1_0" index="0" allow="rail" speed="30.00" length="305.88" shape="1.12,48.40 307.00,48.40"/>
    </edge>
    <edge id="E10" from="e10" to="e11" priority="-1">
        <lane id="E10_0" index="0" allow="rail" speed="30.00" length="73.26" shape="948.38,-399.41 899.09,-453.62"/>
    </edge>
    <edge id="E11" from="e11" to="e12" priority="-1">
        <lane id="E11_0" index="0" allow="rail" speed="30.00" length="117.91" shape="898.78,-453.88 799.92,-518.14"/>
    </edge>
    <edge id="E12" from="e12" to="e13" priority="-1">
        <lane id="E12_0" index="0" allow="rail" speed="30.00" length="798.10" shape="799.05,-518.40 0.95,-518.40"/>
    </edge>
    <edge id="E13" from="e13" to="e14" priority="-1">
        <lane id="E13_0" index="0" allow="rail" speed="30.00" length="117.91" shape="0.08,-518.14 -98.78,-453.88"/>
    </edge>
    <edge id="E14" from="e14" to="e15" priority="-1">
        <lane id="E14_0" index="0" allow="rail" speed="30.00" length="73.26" shape="-99.09,-453.62 -148.38,-399.41"/>
    </edge>
    <edge id="E15" from="e15" to="e16" priority="-1">
        <lane id="E15_0" index="0" allow="rail" speed="30.00" length="78.45" shape="-148.70,-398.86 -174.40,-324.73"/>
    </edge>
    <edge id="E16" from="e16" to="e17" priority="-1">
        <lane id="E16_0" index="0" allow="rail" speed="30.00" length="85.34" shape="-174.47,-324.47 -188.34,-240.26"/>
    </edge>
    <edge id="E17" from="e17" to="e18" priority="-1">
        <lane id="E17_0" index="0" allow="rail" speed="30.00" length="84.29" shape="-188.33,-239.74 -174.48,-156.60"/>
    </edge>
    <edge id="E18" from="e18" to="e19" priority="-1">
        <lane id="E18_0" index="0" allow="rail" speed="30.00" length="70.08" shape="-174.39,-156.27 -148.70,-91.07"/>
    </edge>
    <edge id="E19" from="e19" to="e20" priority="-1">
        <lane id="E19_0" index="0" allow="rail" speed="30.00" length="77.26" shape="-148.44,-90.63 -98.98,-31.27"/>
    </edge>
    <edge id="E2" from="e2" to="e3" priority="-1">
        <lane id="E2_0" index="0" allow="rail" speed="30.00" length="490.38" shape="307.00,48.40 797.38,48.40"/>
    </edge>
    <edge id="E20" from="e20" to="e1" priority="-1">
        <lane id="E20_0" index="0" allow="rail" speed="30.00" length="126.62" shape="-98.75,-31.05 0.12,48.05"/>
    </edge>
    <edge id="E3" from="e3" to="e4" priority="-1">
        <lane id="E3_0" index="0" allow="rail" speed="30.00" length="194.50" shape="805.50,48.40 1000.00,48.40"/>
    </edge>
    <edge id="E4" from="e3" to="e5" priority="-1">
        <lane id="E4_0" index="0" allow="rail" speed="30.00" length="121.12" shape="804.17,44.61 898.75,-31.05"/>
    </edge>
    <edge id="E5" from="e5" to="e6" priority="-1">
        <lane id="E5_0" index="0" allow="rail" speed="30.00" length="77.26" shape="898.98,-31.27 948.44,-90.63"/>
    </edge>
    <edge id="E6" from="e6" to="e7" priority="-1" length="72.13">
        <lane id="E6_0" index="0" allow="rail" speed="30.00" length="72.13" shape="948.70,-91.07 974.39,-156.27"/>
    </edge>
    <edge id="E7" from="e7" to="e8" priority="-1">
        <lane id="E7_0" index="0" allow="rail" speed="30.00" length="84.29" shape="974.48,-156.60 988.33,-239.74"/>
    </edge>
    <edge id="E8" from="e8" to="e9" priority="-1">
        <lane id="E8_0" index="0" allow="rail" speed="30.00" length="85.34" shape="988.34,-240.26 974.47,-324.47"/>
    </edge>
    <edge id="E9" from="e9" to="e10" priority="-1" length="75.62">
        <lane id="E9_0" index="0" allow="rail" speed="30.00" length="75.62" shape="974.40,-324.73 948.70,-398.86"/>
    </edge>

    <junction id="e1" type="priority" x="0.00" y="50.00" incLanes="E20_0" intLanes=":e1_0_0" shape="1.12,50.00 1.12,46.80 -0.88,49.30 -0.23,49.77 0.04,49.90 0.32,49.97 0.66,49.99">
        <request index="0" response="0" foes="0" cont="0"/>
    </junction>
    <junction id="e10" type="priority" x="950.00" y="-400.00" incLanes="E9_0" intLanes=":e10_0_0" shape="947.19,-398.33 950.21,-399.38 950.05,-399.83 949.97,-399.98 949.87,-400.12 949.74,-400.28 949.56,-400.49">
        <request index="0" response="0" foes="0" cont="0"/>
    </junction>
    <junction id="e11" type="priority" x="900.00" y="-455.00" incLanes="E10_0" intLanes=":e11_0_0" shape="897.91,-452.54 900.28,-454.69 900.07,-454.92 899.99,-454.99 899.91,-455.06 899.80,-455.13 899.65,-455.22">
        <request index="0" response="0" foes="0" cont="0"/>
    </junction>
    <junction id="e12" type="priority" x="800.00" y="-520.00" incLanes="E11_0" intLanes=":e12_0_0" shape="799.05,-516.80 800.80,-519.48 800.21,-519.84 799.98,-519.93 799.74,-519.98 799.44,-520.00 799.05,-520.00">
        <request index="0" response="0" foes="0" cont="0"/>
    </junction>
    <junction id="e13" type="priority" x="0.00" y="-520.00" incLanes="E12_0" intLanes=":e13_0_0" shape="0.95,-516.80 0.95,-520.00 0.26,-519.98 0.02,-519.93 -0.21,-519.84 -0.46,-519.69 -0.80,-519.48">
        <request index="0" response="0" foes="0" cont="0"/>
    </junction>
    <junction id="e14" type="priority" x="-100.00" y="-455.00" incLanes="E13_0" intLanes=":e14_0_0" shape="-97.91,-452.54 -99.65,-455.22 -99.91,-455.06 -99.99,-454.99 -100.07,-454.92 -100.16,-454.82 -100.28,-454.69">
        <request index="0" response="0" foes="0" cont="0"/>
    </junction>
    <junction id="e15" type="priority" x="-150.00" y="-400.00" incLanes="E14_0" intLanes=":e15_0_0" shape="-147.19,-398.33 -149.56,-400.49 -149.87,-400.12 -149.97,-399.98 -150.05,-399.83 -150.12,-399.64 -150.21,-399.38">
        <request index="0" response="0" foes="0" cont="0"/>
    </junction>
    <junction id="e16" type="priority" x="-176.00" y="-325.00" incLanes="E15_0" intLanes=":e16_0_0" shape="-172.89,-324.21 -175.91,-325.26 -175.98,-325.07 -175.99,-325.00 -176.01,-324.93 -176.04,-324.73">
        <request index="0" response="0" foes="0" cont="0"/>
    </junction>
    <junction id="e17" type="priority" x="-190.00" y="-240.00" incLanes="E16_0" intLanes=":e17_0_0" shape="-189.91,-239.48 -186.76,-240.00 -189.91,-240.52 -189.97,-240.14 -189.98,-240.00 -189.97,-239.86 -189.95,-239.70">
        <request index="0" response="0" foes="0" cont="0"/>
    </junction>
    <junction id="e18" type="priority" x="-176.00" y="-156.00" incLanes="E17_0" intLanes=":e18_0_0" shape="-175.88,-155.69 -172.90,-156.86 -176.06,-156.33 -176.01,-156.09 -175.99,-156.00 -175.97,-155.92 -175.93,-155.82">
        <request index="0" response="0" foes="0" cont="0"/>
    </junction>
    <junction id="e19" type="priority" x="-150.00" y="-90.00" incLanes="E18_0" intLanes=":e19_0_0" shape="-149.67,-89.60 -147.21,-91.65 -150.19,-90.48 -150.04,-90.13 -149.98,-90.01 -149.91,-89.90 -149.81,-89.77">
        <request index="0" response="0" foes="0" cont="0"/>
    </junction>
    <junction id="e2" type="priority" x="307.00" y="50.00" incLanes="E1_0" intLanes=":e2_0_0" shape="307.00,50.00 307.00,46.80 307.00,50.00">
        <request index="0" response="0" foes="0" cont="0"/>
    </junction>
    <junction id="e20" type="priority" x="-100.00" y="-30.00" incLanes="E19_0" intLanes=":e20_0_0" shape="-99.75,-29.80 -97.75,-32.30 -100.21,-30.25 -100.05,-30.07 -99.99,-30.01 -99.93,-29.95 -99.85,-29.88">
        <request index="0" response="0" foes="0" cont="0"/>
    </junction>
    <junction id="e3" type="priority" x="800.00" y="50.00" incLanes="E2_0" intLanes=":e3_0_0 :e3_1_0" shape="805.50,50.00 805.50,46.80 804.80,46.70 804.67,46.57 804.69,46.38 804.86,46.15 805.17,45.86 803.17,43.36 801.25,45.19 800.55,45.87 799.79,46.38 798.79,46.69 797.38,46.80 797.38,50.00">
        <request index="0" response="00" foes="00" cont="0"/>
        <request index="1" response="00" foes="00" cont="0"/>
    </junction>
    <junction id="e4" type="dead_end" x="1000.00" y="50.00" incLanes="E3_0" intLanes="" shape="1000.00,46.80 1000.00,50.00"/>
    <junction id="e5" type="priority" x="900.00" y="-30.00" incLanes="E4_0" intLanes=":e5_0_0" shape="900.21,-30.25 897.75,-32.30 899.75,-29.80 899.93,-29.95 899.99,-30.01 900.05,-30.07 900.12,-30.14">
        <request index="0" response="0" foes="0" cont="0"/>
    </junction>
    <junction id="e6" type="priority" x="950.00" y="-90.00" incLanes="E5_0" intLanes=":e6_0_0" shape="950.19,-90.48 947.21,-91.65 949.67,-89.60 949.91,-89.90 949.98,-90.01 950.04,-90.13 950.11,-90.28">
        <request index="0" response="0" foes="0" cont="0"/>
    </junction>
    <junction id="e7" type="priority" x="976.00" y="-156.00" incLanes="E6_0" intLanes=":e7_0_0" shape="976.06,-156.33 972.90,-156.86 975.88,-155.69 975.97,-155.92 975.99,-156.00 976.01,-156.09 976.03,-156.19">
        <request index="0" response="0" foes="0" cont="0"/>
    </junction>
    <junction id="e8" type="priority" x="990.00" y="-240.00" incLanes="E7_0" intLanes=":e8_0_0" shape="989.91,-240.52 986.76,-240.00 989.91,-239.48 989.97,-239.86 989.98,-240.00 989.97,-240.14 989.95,-240.30">
        <request index="0" response="0" foes="0" cont="0"/>
    </junction>
    <junction id="e9" type="priority" x="976.00" y="-325.00" incLanes="E8_0" intLanes=":e9_0_0" shape="972.89,-324.21 976.04,-324.73 976.01,-324.93 975.99,-325.00 975.98,-325.07 975.91,-325.26">
        <request index="0" response="0" foes="0" cont="0"/>
    </junction>

    <connection from="E1" to="E2" fromLane="0" toLane="0" via=":e2_0_0" dir="s" state="M"/>
    <connection from="E10" to="E11" fromLane="0" toLane="0" via=":e11_0_0" dir="s" state="M"/>
    <connection from="E11" to="E12" fromLane="0" toLane="0" via=":e12_0_0" dir="s" state="M"/>
    <connection from="E12" to="E13" fromLane="0" toLane="0" via=":e13_0_0" dir="s" state="M"/>
    <connection from="E13" to="E14" fromLane="0" toLane="0" via=":e14_0_0" dir="s" state="M"/>
    <connection from="E14" to="E15" fromLane="0" toLane="0" via=":e15_0_0" dir="s" state="M"/>
    <connection from="E15" to="E16" fromLane="0" toLane="0" via=":e16_0_0" dir="s" state="M"/>
    <connection from="E16" to="E17" fromLane="0" toLane="0" via=":e17_0_0" dir="s" state="M"/>
    <connection from="E17" to="E18" fromLane="0" toLane="0" via=":e18_0_0" dir="s" state="M"/>
    <connection from="E18" to="E19" fromLane="0" toLane="0" via=":e19_0_0" dir="s" state="M"/>
    <connection from="E19" to="E20" fromLane="0" toLane="0" via=":e20_0_0" dir="s" state="M"/>
    <connection from="E2" to="E4" fromLane="0" toLane="0" via=":e3_0_0" dir="R" state="M"/>
    <connection from="E2" to="E3" fromLane="0" toLane="0" via=":e3_1_0" dir="s" state="M"/>
    <connection from="E20" to="E1" fromLane="0" toLane="0" via=":e1_0_0" dir="s" state="M"/>
    <connection from="E4" to="E5" fromLane="0" toLane="0" via=":e5_0_0" dir="s" state="M"/>
    <connection from="E5" to="E6" fromLane="0" toLane="0" via=":e6_0_0" dir="s" state="M"/>
    <connection from="E6" to="E7" fromLane="0" toLane="0" via=":e7_0_0" dir="s" state="M"/>
    <connection from="E7" to="E8" fromLane="0" toLane="0" via=":e8_0_0" dir="s" state="M"/>
    <connection from="E8" to="E9" fromLane="0" toLane="0" via=":e9_0_0" dir="s" state="M"/>
    <connection from="E9" to="E10" fromLane="0" toLane="0" via=":e10_0_0" dir="s" state="M"/>

    <connection from=":e1_0" to="E1" fromLane="0" toLane="0" dir="s" state="M"/>
    <connection from=":e10_0" to="E10" fromLane="0" toLane="0" dir="s" state="M"/>
    <connection from=":e11_0" to="E11" fromLane="0" toLane="0" dir="s" state="M"/>
    <connection from=":e12_0" to="E12" fromLane="0" toLane="0" dir="s" state="M"/>
    <connection from=":e13_0" to="E13" fromLane="0" toLane="0" dir="s" state="M"/>
    <connection from=":e14_0" to="E14" fromLane="0" toLane="0" dir="s" state="M"/>
    <connection from=":e15_0" to="E15" fromLane="0" toLane="0" dir="s" state="M"/>
    <connection from=":e16_0" to="E16" fromLane="0" toLane="0" dir="s" state="M"/>
    <connection from=":e17_0" to="E17" fromLane="0" toLane="0" dir="s" state="M"/>
    <connection from=":e18_0" to="E18" fromLane="0" toLane="0" dir="s" state="M"/>
    <connection from=":e19_0" to="E19" fromLane="0" toLane="0" dir="s" state="M"/>
    <connection from=":e2_0" to="E2" fromLane="0" toLane="0" dir="s" state="M"/>
    <connection from=":e20_0" to="E20" fromLane="0" toLane="0" dir="s" state="M"/>
    <connection from=":e3_0" to="E4" fromLane="0" toLane="0" dir="R" state="M"/>
    <connection from=":e3_1" to="E3" fromLane="0" toLane="0" dir="s" state="M"/>
    <connection from=":e5_0" to="E5" fromLane="0" toLane="0" dir="s" state="M"/>
    <connection from=":e6_0" to="E6" fromLane="0" toLane="0" dir="s" state="M"/>
    <connection from=":e7_0" to="E7" fromLane="0" toLane="0" dir="s" state="M"/>
    <connection from=":e8_0" to="E8" fromLane="0" toLane="0" dir="s" state="M"/>
    <connection from=":e9_0" to="E9" fromLane="0" toLane="0" dir="s" state="M"/>

</net>
