<configuration>
	<input>
		<net-file value="railvc2.net.xml"/>
		<route-files value="railvc2.rou.xml"/>
		<additional-files value="railvc2.add.xml"/>
	</input>
</configuration>
