<configuration>
	<input>
		<net-file value="newNetRailvc2.net.xml"/>
		<route-files value="railvc2.rou.xml"/>
		<additional-files value="railvc2.add.xml"/>
	</input>
	<processing>
		<time-to-teleport value="-1"/>
	</processing>
</configuration>
