<?xml version="1.0" encoding="UTF-8"?>

<!-- generated on 2022-11-15 14:30:16 by Eclipse SUMO netedit Version 1.14.1
<configuration xmlns:xsi="http://www.w3.org/2001/XMLSchema-instance" xsi:noNamespaceSchemaLocation="http://sumo.dlr.de/xsd/netconvertConfiguration.xsd">

    <input>
        <sumo-net-file value="C:\Users\spata\source\repos\MatteoSpataro\SUMO-Virtual-Coupling\src\main\railvc2.net.xml"/>
    </input>

    <output>
        <output-file value="C:\Users\spata\source\repos\MatteoSpataro\SUMO-Virtual-Coupling\src\main\railvc2.net.xml"/>
    </output>

    <processing>
        <geometry.min-radius.fix.railways value="false"/>
        <geometry.max-grade.fix value="false"/>
        <offset.disable-normalization value="true"/>
        <lefthand value="false"/>
    </processing>

    <junctions>
        <no-turnarounds value="true"/>
        <junctions.corner-detail value="5"/>
        <junctions.limit-turn-speed value="5.5"/>
        <rectangular-lane-cut value="false"/>
    </junctions>

    <pedestrian>
        <walkingareas value="false"/>
    </pedestrian>

</configuration>
-->

<net version="1.9" junctionCornerDetail="5" limitTurnSpeed="5.50" xmlns:xsi="http://www.w3.org/2001/XMLSchema-instance" xsi:noNamespaceSchemaLocation="http://sumo.dlr.de/xsd/net_file.xsd">

    <location netOffset="0.00,0.00" convBoundary="-650.00,-300.00,400.00,400.00" origBoundary="-10000000000.00,-10000000000.00,10000000000.00,10000000000.00" projParameter="!"/>

    <edge id=":J0_0" function="internal">
        <lane id=":J0_0_0" index="0" speed="16.00" length="0.29" shape="-177.41,260.50 -177.16,260.63"/>
    </edge>
    <edge id=":e0_0" function="internal">
        <lane id=":e0_0_0" index="0" speed="30.00" length="0.10" shape="100.00,298.40 100.00,298.40"/>
    </edge>
    <edge id=":e10_0" function="internal">
        <lane id=":e10_0_0" index="0" speed="28.50" length="0.47" shape="398.33,199.99 398.37,199.86 398.39,199.76 398.40,199.67 398.40,199.53"/>
    </edge>
    <edge id=":e11_0" function="internal">
        <lane id=":e11_0_0" index="0" speed="28.50" length="0.47" shape="398.40,-199.53 398.40,-199.67 398.39,-199.76 398.37,-199.86 398.33,-199.99"/>
    </edge>
    <edge id=":e12_0" function="internal">
        <lane id=":e12_0_0" index="0" speed="26.50" length="0.80" shape="383.70,-248.77 383.63,-248.99 383.56,-249.14 383.46,-249.27 383.30,-249.44"/>
    </edge>
    <edge id=":e13_0" function="internal">
        <lane id=":e13_0_0" index="0" speed="26.50" length="0.80" shape="349.44,-283.30 349.27,-283.46 349.14,-283.56 348.99,-283.63 348.77,-283.70"/>
    </edge>
    <edge id=":e14_0" function="internal">
        <lane id=":e14_0_0" index="0" speed="28.50" length="0.47" shape="299.99,-298.33 299.86,-298.37 299.76,-298.39 299.67,-298.40 299.53,-298.40"/>
    </edge>
    <edge id=":e15_0" function="internal">
        <lane id=":e15_0_0" index="0" speed="29.00" length="0.47" shape="-499.53,-298.40 -499.67,-298.40 -499.76,-298.39 -499.86,-298.37 -499.99,-298.33"/>
    </edge>
    <edge id=":e16_0" function="internal">
        <lane id=":e16_0_0" index="0" speed="4.17" length="1.31" shape="-598.22,-268.86 -598.52,-268.74 -598.79,-268.56 -599.01,-268.33 -599.19,-268.05"/>
    </edge>
    <edge id=":e17_0" function="internal">
        <lane id=":e17_0_0" index="0" speed="29.00" length="0.75" shape="-648.23,-169.96 -648.33,-169.76 -648.38,-169.62 -648.40,-169.47 -648.40,-169.24"/>
    </edge>
    <edge id=":e18_0" function="internal">
        <lane id=":e18_0_0" index="0" speed="30.00" length="0.30" shape="-648.40,-140.15 -648.40,-139.85"/>
    </edge>
    <edge id=":e19_0" function="internal">
        <lane id=":e19_0_0" index="0" speed="30.00" length="0.32" shape="-648.30,-110.10 -648.32,-110.01 -648.35,-109.95 -648.38,-109.89 -648.40,-109.80"/>
    </edge>
    <edge id=":e20_0" function="internal">
        <lane id=":e20_0_0" index="0" speed="28.50" length="0.43" shape="-648.40,129.57 -648.40,129.70 -648.39,129.78 -648.38,129.87 -648.34,129.99"/>
    </edge>
    <edge id=":e21_0" function="internal">
        <lane id=":e21_0_0" index="0" speed="26.50" length="0.52" shape="-633.59,184.08 -633.55,184.23 -633.51,184.32 -633.46,184.42 -633.38,184.54"/>
    </edge>
    <edge id=":e22_0" function="internal">
        <lane id=":e22_0_0" index="0" speed="26.50" length="0.90" shape="-604.18,228.35 -604.02,228.57 -603.90,228.71 -603.75,228.81 -603.51,228.92"/>
    </edge>
    <edge id=":e23_0" function="internal">
        <lane id=":e23_0_0" index="0" speed="28.50" length="0.53" shape="-549.82,253.32 -549.68,253.39 -549.58,253.42 -549.47,253.44 -549.32,253.46"/>
    </edge>
    <edge id=":e4_0" function="internal">
        <lane id=":e4_0_0" index="0" speed="13.00" length="0.75" shape="-300.76,398.40 -300.53,398.40 -300.38,398.38 -300.24,398.33 -300.04,398.23"/>
    </edge>
    <edge id=":e43_0" function="internal">
        <lane id=":e43_0_0" index="0" speed="4.20" length="1.26" shape="0.19,397.93 0.44,398.14 0.71,398.28 1.01,398.37 1.33,398.40"/>
    </edge>
    <edge id=":e44_0" function="internal">
        <lane id=":e44_0_0" index="0" speed="13.89" length="0.10" shape="100.00,398.40 100.00,398.40"/>
    </edge>
    <edge id=":e46_0" function="internal">
        <lane id=":e46_0_0" index="0" speed="4.20" length="1.26" shape="-1.13,198.87 -0.88,198.66 -0.61,198.52 -0.32,198.43 0.00,198.40"/>
    </edge>
    <edge id=":e47_0" function="internal">
        <lane id=":e47_0_0" index="0" speed="13.89" length="0.10" shape="100.00,198.40 100.00,198.40"/>
    </edge>
    <edge id=":e5_0" function="internal">
        <lane id=":e5_0_0" index="0" speed="10.00" length="0.76" shape="-300.00,198.40 -299.78,198.40 -299.62,198.42 -299.48,198.48 -299.28,198.57"/>
    </edge>
    <edge id=":e6_0" function="internal">
        <lane id=":e6_0_0" index="0" speed="9.48" length="15.17" shape="-110.17,293.27 -105.59,295.09 -101.68,295.76 -98.46,295.28 -95.91,293.65"/>
    </edge>
    <edge id=":e6_1" function="internal">
        <lane id=":e6_1_0" index="0" speed="23.07" length="18.39" shape="-110.17,293.27 -106.23,294.99 -101.59,296.65 -96.84,297.91 -92.62,298.40"/>
    </edge>
    <edge id=":e6_2" function="internal">
        <lane id=":e6_2_0" index="0" speed="17.95" length="18.51" shape="-110.17,293.27 -106.34,295.24 -102.02,297.70 -97.88,300.42 -94.59,303.15"/>
    </edge>
    <edge id=":e6_3" function="internal">
        <lane id=":e6_3_0" index="0" speed="18.73" length="39.24" shape="-134.68,294.92 -119.47,296.12 -107.95,296.31 -100.09,295.49 -95.91,293.65"/>
    </edge>
    <edge id=":e6_4" function="internal">
        <lane id=":e6_4_0" index="0" speed="30.00" length="42.20" shape="-134.68,294.92 -126.71,295.68 -113.66,296.85 -100.60,297.93 -92.62,298.40"/>
    </edge>
    <edge id=":e6_5" function="internal">
        <lane id=":e6_5_0" index="0" speed="21.95" length="41.06" shape="-134.68,294.92 -126.81,295.92 -114.09,297.90 -101.65,300.44 -94.59,303.15"/>
    </edge>
    <edge id=":e6_6" function="internal">
        <lane id=":e6_6_0" index="0" speed="11.95" length="39.60" shape="-134.85,298.40 -119.60,298.10 -108.02,297.21 -100.13,295.73 -95.91,293.65"/>
    </edge>
    <edge id=":e6_7" function="internal">
        <lane id=":e6_7_0" index="0" speed="20.00" length="42.23" shape="-134.85,298.40 -92.62,298.40"/>
    </edge>
    <edge id=":e6_8" function="internal">
        <lane id=":e6_8_0" index="0" speed="11.95" length="26.79" shape="-134.85,298.40 -119.02,298.70 -108.09,299.51"/>
    </edge>
    <edge id=":e6_12" function="internal">
        <lane id=":e6_12_0" index="0" speed="11.95" length="14.12" shape="-108.09,299.51 -107.03,299.59 -98.89,301.07 -94.59,303.15"/>
    </edge>
    <edge id=":e6_9" function="internal">
        <lane id=":e6_9_0" index="0" speed="13.45" length="15.96" shape="-108.99,302.71 -105.56,300.85 -102.10,298.67 -98.82,296.24 -95.91,293.65"/>
    </edge>
    <edge id=":e6_10" function="internal">
        <lane id=":e6_10_0" index="0" speed="21.50" length="17.04" shape="-108.99,302.71 -105.25,301.09 -101.00,299.71 -96.66,298.76 -92.62,298.40"/>
    </edge>
    <edge id=":e6_11" function="internal">
        <lane id=":e6_11_0" index="0" speed="9.51" length="15.44" shape="-108.99,302.71 -104.60,300.99 -100.74,300.49 -97.40,301.21 -94.59,303.15"/>
    </edge>
    <edge id=":e7_0" function="internal">
        <lane id=":e7_0_0" index="0" speed="28.50" length="0.47" shape="299.53,298.40 299.67,298.40 299.76,298.39 299.86,298.37 299.99,298.33"/>
    </edge>
    <edge id=":e8_0" function="internal">
        <lane id=":e8_0_0" index="0" speed="26.50" length="0.80" shape="348.77,283.70 348.99,283.63 349.14,283.56 349.27,283.46 349.44,283.30"/>
    </edge>
    <edge id=":e9_0" function="internal">
        <lane id=":e9_0_0" index="0" speed="26.50" length="0.80" shape="383.30,249.44 383.46,249.27 383.56,249.14 383.63,248.99 383.70,248.77"/>
    </edge>

    <edge id="E0" from="e6" to="e0" priority="-1">
        <lane id="E0_0" index="0" speed="30.00" length="192.62" shape="-92.62,298.40 100.00,298.40"/>
    </edge>
    <edge id="E1" from="e1" to="e4" priority="3">
        <lane id="E1_0" index="0" speed="13.00" length="149.24" shape="-450.00,398.40 -300.76,398.40"/>
    </edge>
    <edge id="E10" from="e10" to="e11" priority="-1">
        <lane id="E10_0" index="0" speed="30.00" length="399.06" shape="398.40,199.53 398.40,-199.53"/>
    </edge>
    <edge id="E11" from="e11" to="e12" priority="-1">
        <lane id="E11_0" index="0" speed="27.00" length="50.93" shape="398.33,-199.99 383.70,-248.77"/>
    </edge>
    <edge id="E12" from="e12" to="e13" priority="-1">
        <lane id="E12_0" index="0" speed="26.00" length="47.88" shape="383.30,-249.44 349.44,-283.30"/>
    </edge>
    <edge id="E13" from="e13" to="e14" priority="-1">
        <lane id="E13_0" index="0" speed="27.00" length="50.93" shape="348.77,-283.70 299.99,-298.33"/>
    </edge>
    <edge id="E14" from="e14" to="e15" priority="-1">
        <lane id="E14_0" index="0" speed="30.00" length="799.06" shape="299.53,-298.40 -499.53,-298.40"/>
    </edge>
    <edge id="E15" from="e15" to="e16" priority="-1">
        <lane id="E15_0" index="0" speed="28.00" length="102.55" shape="-499.99,-298.33 -598.22,-268.86"/>
    </edge>
    <edge id="E16" from="e16" to="e17" priority="-1">
        <lane id="E16_0" index="0" speed="28.00" length="109.67" shape="-599.19,-268.05 -648.23,-169.96"/>
    </edge>
    <edge id="E17" from="e17" to="e18" priority="-1">
        <lane id="E17_0" index="0" speed="30.00" length="29.09" shape="-648.40,-169.24 -648.40,-140.15"/>
    </edge>
    <edge id="E18" from="e18" to="e19" priority="-1" shape="-650.00,-140.00 -649.90,-109.90">
        <lane id="E18_0" index="0" speed="30.00" length="29.75" shape="-648.40,-139.85 -648.30,-110.10"/>
    </edge>
    <edge id="E19" from="e19" to="e20" priority="-1">
        <lane id="E19_0" index="0" speed="30.00" length="239.37" shape="-648.40,-109.80 -648.40,129.57"/>
    </edge>
    <edge id="E2" from="e2" to="e6" priority="2">
        <lane id="E2_0" index="0" speed="10.00" length="365.15" shape="-500.00,298.40 -134.85,298.40"/>
    </edge>
    <edge id="E20" from="e20" to="e21" priority="-1">
        <lane id="E20_0" index="0" speed="27.00" length="56.06" shape="-648.34,129.99 -633.59,184.08"/>
    </edge>
    <edge id="E21" from="e21" to="e22" priority="-1">
        <lane id="E21_0" index="0" speed="26.00" length="52.65" shape="-633.38,184.54 -604.18,228.35"/>
    </edge>
    <edge id="E22" from="e22" to="e23" priority="-1">
        <lane id="E22_0" index="0" speed="27.00" length="58.97" shape="-603.51,228.92 -549.82,253.32"/>
    </edge>
    <edge id="E23" from="e23" to="e6" priority="-1">
        <lane id="E23_0" index="0" speed="30.00" length="416.71" shape="-549.32,253.46 -134.68,294.92"/>
    </edge>
    <edge id="E3" from="e3" to="e5" priority="1">
        <lane id="E3_0" index="0" speed="10.00" length="200.00" shape="-500.00,198.40 -300.00,198.40"/>
    </edge>
    <edge id="E4" from="e4" to="e6" priority="3">
        <lane id="E4_0" index="0" speed="13.00" length="213.60" shape="-300.04,398.23 -108.99,302.71"/>
    </edge>
    <edge id="E46" from="e6" to="e43" priority="-1">
        <lane id="E46_0" index="0" speed="13.89" length="134.04" shape="-94.59,303.15 0.19,397.93"/>
    </edge>
    <edge id="E47" from="e43" to="e44" priority="-1">
        <lane id="E47_0" index="0" speed="13.89" length="98.67" shape="1.33,398.40 100.00,398.40"/>
    </edge>
    <edge id="E48" from="e44" to="e45" priority="-1">
        <lane id="E48_0" index="0" speed="13.89" length="100.00" shape="100.00,398.40 200.00,398.40"/>
    </edge>
    <edge id="E49" from="e6" to="e46" priority="-1">
        <lane id="E49_0" index="0" speed="13.89" length="134.04" shape="-95.91,293.65 -1.13,198.87"/>
    </edge>
    <edge id="E5" from="e5" to="J0" priority="-1">
        <lane id="E5_0" index="0" speed="10.00" length="136.69" shape="-299.28,198.57 -177.41,260.50"/>
    </edge>
    <edge id="E50" from="e46" to="e47" priority="-1">
        <lane id="E50_0" index="0" speed="13.89" length="100.00" shape="0.00,198.40 100.00,198.40"/>
    </edge>
    <edge id="E51" from="e47" to="e48" priority="-1">
        <lane id="E51_0" index="0" speed="13.89" length="100.00" shape="100.00,198.40 200.00,198.40"/>
    </edge>
    <edge id="E55" from="J0" to="e6" priority="-1">
        <lane id="E55_0" index="0" speed="22.00" length="74.52" shape="-177.16,260.63 -110.17,293.27"/>
    </edge>
    <edge id="E6" from="e0" to="e7" priority="-1">
        <lane id="E6_0" index="0" speed="30.00" length="199.53" shape="100.00,298.40 299.53,298.40"/>
    </edge>
    <edge id="E7" from="e7" to="e8" priority="-1">
        <lane id="E7_0" index="0" speed="27.00" length="50.93" shape="299.99,298.33 348.77,283.70"/>
    </edge>
    <edge id="E8" from="e8" to="e9" priority="-1">
        <lane id="E8_0" index="0" speed="26.00" length="47.88" shape="349.44,283.30 383.30,249.44"/>
    </edge>
    <edge id="E9" from="e9" to="e10" priority="-1">
        <lane id="E9_0" index="0" speed="27.00" length="50.93" shape="383.70,248.77 398.33,199.99"/>
    </edge>

    <junction id="J0" type="priority" x="-178.00" y="262.00" incLanes="E5_0" intLanes=":J0_0_0" shape="-177.86,262.07 -176.46,259.19 -176.69,259.08 -178.14,261.93">
        <request index="0" response="0" foes="0" cont="0"/>
    </junction>
    <junction id="e0" type="priority" x="100.00" y="300.00" incLanes="E0_0" intLanes=":e0_0_0" shape="100.00,300.00 100.00,296.80 100.00,300.00">
        <request index="0" response="0" foes="0" cont="0"/>
    </junction>
    <junction id="e1" type="dead_end" x="-450.00" y="400.00" incLanes="" intLanes="" shape="-450.00,400.00 -450.00,396.80"/>
    <junction id="e10" type="priority" x="400.00" y="200.00" incLanes="E9_0" intLanes=":e10_0_0" shape="400.00,199.53 396.80,199.53 399.87,200.45 399.96,200.12 399.98,200.00 399.99,199.88 400.00,199.73">
        <request index="0" response="0" foes="0" cont="0"/>
    </junction>
    <junction id="e11" type="priority" x="400.00" y="-200.00" incLanes="E10_0" intLanes=":e11_0_0" shape="396.80,-199.53 400.00,-199.53 399.99,-199.88 399.98,-200.00 399.96,-200.12 399.92,-200.26 399.87,-200.45">
        <request index="0" response="0" foes="0" cont="0"/>
    </junction>
    <junction id="e12" type="priority" x="385.00" y="-250.00" incLanes="E11_0" intLanes=":e12_0_0" shape="382.17,-248.31 385.23,-249.23 385.05,-249.79 384.95,-249.97 384.83,-250.14 384.67,-250.33 384.43,-250.57">
        <request index="0" response="0" foes="0" cont="0"/>
    </junction>
    <junction id="e13" type="priority" x="350.00" y="-285.00" incLanes="E12_0" intLanes=":e13_0_0" shape="348.31,-282.17 350.57,-284.43 350.14,-284.83 349.97,-284.95 349.79,-285.05 349.55,-285.13 349.23,-285.23">
        <request index="0" response="0" foes="0" cont="0"/>
    </junction>
    <junction id="e14" type="priority" x="300.00" y="-300.00" incLanes="E13_0" intLanes=":e14_0_0" shape="299.53,-296.80 300.45,-299.87 300.12,-299.96 300.00,-299.98 299.88,-299.99 299.73,-300.00 299.53,-300.00">
        <request index="0" response="0" foes="0" cont="0"/>
    </junction>
    <junction id="e15" type="priority" x="-500.00" y="-300.00" incLanes="E14_0" intLanes=":e15_0_0" shape="-499.53,-296.80 -499.53,-300.00 -499.88,-299.99 -500.00,-299.98 -500.12,-299.96 -500.26,-299.92 -500.45,-299.87">
        <request index="0" response="0" foes="0" cont="0"/>
    </junction>
    <junction id="e16" type="priority" x="-600.00" y="-270.00" incLanes="E15_0" intLanes=":e16_0_0" shape="-597.76,-267.33 -598.68,-270.40 -599.48,-270.04 -599.82,-269.79 -600.13,-269.49 -600.39,-269.15 -600.62,-268.76">
        <request index="0" response="0" foes="0" cont="0"/>
    </junction>
    <junction id="e17" type="priority" x="-650.00" y="-170.00" incLanes="E16_0" intLanes=":e17_0_0" shape="-650.00,-169.24 -646.80,-169.24 -649.66,-170.68 -649.90,-170.18 -649.95,-169.99 -649.99,-169.80 -650.00,-169.56">
        <request index="0" response="0" foes="0" cont="0"/>
    </junction>
    <junction id="e18" type="priority" x="-650.00" y="-140.00" incLanes="E17_0" intLanes=":e18_0_0" shape="-650.00,-139.85 -646.80,-139.86 -646.80,-140.15 -650.00,-140.15">
        <request index="0" response="0" foes="0" cont="0"/>
    </junction>
    <junction id="e19" type="priority" x="-650.00" y="-110.00" incLanes="E18_0" intLanes=":e19_0_0" shape="-650.00,-109.80 -646.80,-109.80 -646.77,-109.92 -646.73,-109.99 -646.71,-110.04 -649.90,-110.10 -649.93,-109.99 -649.97,-109.91 -649.99,-109.87">
        <request index="0" response="0" foes="0" cont="0"/>
    </junction>
    <junction id="e2" type="dead_end" x="-500.00" y="300.00" incLanes="" intLanes="" shape="-500.00,300.00 -500.00,296.80"/>
    <junction id="e20" type="priority" x="-650.00" y="130.00" incLanes="E19_0" intLanes=":e20_0_0" shape="-649.89,130.41 -646.80,129.57 -650.00,129.57 -650.00,129.89 -649.99,130.00 -649.97,130.11 -649.93,130.24">
        <request index="0" response="0" foes="0" cont="0"/>
    </junction>
    <junction id="e21" type="priority" x="-635.00" y="185.00" incLanes="E20_0" intLanes=":e21_0_0" shape="-634.71,185.43 -632.05,183.66 -635.14,184.50 -635.03,184.87 -634.98,184.99 -634.92,185.11 -634.83,185.25">
        <request index="0" response="0" foes="0" cont="0"/>
    </junction>
    <junction id="e22" type="priority" x="-605.00" y="230.00" incLanes="E21_0" intLanes=":e22_0_0" shape="-604.17,230.38 -602.84,227.46 -605.51,229.24 -605.12,229.78 -604.95,229.95 -604.76,230.08 -604.51,230.22">
        <request index="0" response="0" foes="0" cont="0"/>
    </junction>
    <junction id="e23" type="priority" x="-550.00" y="255.00" incLanes="E22_0" intLanes=":e23_0_0" shape="-549.47,255.05 -549.16,251.87 -550.48,254.78 -550.12,254.94 -549.99,254.98 -549.86,255.01 -549.70,255.03">
        <request index="0" response="0" foes="0" cont="0"/>
    </junction>
    <junction id="e3" type="dead_end" x="-500.00" y="200.00" incLanes="" intLanes="" shape="-500.00,200.00 -500.00,196.80"/>
    <junction id="e4" type="priority" x="-300.00" y="400.00" incLanes="E1_0" intLanes=":e4_0_0" shape="-299.32,399.66 -300.76,396.80 -300.76,400.00 -300.20,399.99 -300.01,399.95 -299.82,399.90 -299.61,399.80">
        <request index="0" response="0" foes="0" cont="0"/>
    </junction>
    <junction id="e43" type="priority" x="0.00" y="400.00" incLanes="E46_0" intLanes=":e43_0_0" shape="1.33,400.00 1.33,396.80 -0.94,399.06 -0.27,399.58 0.10,399.77 0.48,399.90 0.89,399.97">
        <request index="0" response="0" foes="0" cont="0"/>
    </junction>
    <junction id="e44" type="priority" x="100.00" y="400.00" incLanes="E47_0" intLanes=":e44_0_0" shape="100.00,400.00 100.00,396.80 100.00,400.00">
        <request index="0" response="0" foes="0" cont="0"/>
    </junction>
    <junction id="e45" type="dead_end" x="200.00" y="400.00" incLanes="E48_0" intLanes="" shape="200.00,396.80 200.00,400.00"/>
    <junction id="e46" type="priority" x="0.00" y="200.00" incLanes="E49_0" intLanes=":e46_0_0" shape="0.00,200.00 0.00,196.80 -0.84,196.90 -1.23,197.03 -1.59,197.22 -1.94,197.45 -2.26,197.74">
        <request index="0" response="0" foes="0" cont="0"/>
    </junction>
    <junction id="e47" type="priority" x="100.00" y="200.00" incLanes="E50_0" intLanes=":e47_0_0" shape="100.00,200.00 100.00,196.80 100.00,200.00">
        <request index="0" response="0" foes="0" cont="0"/>
    </junction>
    <junction id="e48" type="dead_end" x="200.00" y="200.00" incLanes="E51_0" intLanes="" shape="200.00,196.80 200.00,200.00"/>
    <junction id="e5" type="priority" x="-300.00" y="200.00" incLanes="E3_0" intLanes=":e5_0_0" shape="-300.00,200.00 -298.55,197.15 -299.06,196.91 -299.24,196.85 -299.44,196.81 -299.68,196.80 -300.00,196.80">
        <request index="0" response="0" foes="0" cont="0"/>
    </junction>
    <junction id="e6" type="priority" x="-100.00" y="300.00" incLanes="E55_0 E23_0 E2_0 E4_0" intLanes=":e6_0_0 :e6_1_0 :e6_2_0 :e6_3_0 :e6_4_0 :e6_5_0 :e6_6_0 :e6_7_0 :e6_12_0 :e6_9_0 :e6_10_0 :e6_11_0" shape="-95.72,304.28 -93.46,302.02 -94.26,300.90 -94.26,300.50 -93.98,300.22 -93.44,300.06 -92.62,300.00 -92.62,296.80 -94.72,296.58 -95.25,296.30 -95.44,295.90 -95.28,295.40 -94.78,294.78 -97.05,292.52 -100.03,294.05 -101.95,294.15 -104.17,293.81 -106.67,293.04 -109.47,291.83 -110.87,294.70 -113.14,295.10 -116.98,294.90 -122.09,294.50 -128.07,293.96 -134.52,293.33 -134.84,296.52 -134.85,296.80 -134.85,300.00 -127.98,300.02 -121.64,300.09 -116.24,300.24 -112.17,300.47 -109.86,300.81 -109.71,301.28 -108.28,304.14 -105.63,302.99 -103.20,302.31 -101.00,302.10 -99.02,302.36 -97.26,303.09" rightOfWay="edgePriority" fringe="outer">
        <request index="0"  response="001001000000" foes="001001001000" cont="0"/>
        <request index="1"  response="011011010000" foes="011011011000" cont="0"/>
        <request index="2"  response="111111000000" foes="111111111000" cont="0"/>
        <request index="3"  response="001001000111" foes="001001000111" cont="0"/>
        <request index="4"  response="011011000100" foes="011011000110" cont="0"/>
        <request index="5"  response="111111000100" foes="111111000100" cont="0"/>
        <request index="6"  response="001000000000" foes="001000111111" cont="0"/>
        <request index="7"  response="011000000000" foes="011000110110" cont="0"/>
        <request index="8"  response="111000000000" foes="111000100100" cont="1"/>
        <request index="9"  response="000000000000" foes="000111111111" cont="0"/>
        <request index="10" response="000000000000" foes="000110110110" cont="0"/>
        <request index="11" response="000000000000" foes="000100100100" cont="0"/>
    </junction>
    <junction id="e7" type="priority" x="300.00" y="300.00" incLanes="E6_0" intLanes=":e7_0_0" shape="300.45,299.87 299.53,296.80 299.53,300.00 299.88,299.99 300.00,299.98 300.12,299.96 300.26,299.92">
        <request index="0" response="0" foes="0" cont="0"/>
    </junction>
    <junction id="e8" type="priority" x="350.00" y="285.00" incLanes="E7_0" intLanes=":e8_0_0" shape="350.57,284.43 348.31,282.17 349.23,285.23 349.79,285.05 349.97,284.95 350.14,284.83 350.33,284.67">
        <request index="0" response="0" foes="0" cont="0"/>
    </junction>
    <junction id="e9" type="priority" x="385.00" y="250.00" incLanes="E8_0" intLanes=":e9_0_0" shape="385.23,249.23 382.17,248.31 384.43,250.57 384.83,250.14 384.95,249.97 385.05,249.79 385.13,249.55">
        <request index="0" response="0" foes="0" cont="0"/>
    </junction>

    <junction id=":e6_12_0" type="internal" x="-108.09" y="299.51" incLanes=":e6_8_0 E4_0" intLanes=":e6_2_0 :e6_5_0 :e6_9_0 :e6_10_0 :e6_11_0"/>

    <connection from="E0" to="E6" fromLane="0" toLane="0" via=":e0_0_0" dir="s" state="M"/>
    <connection from="E1" to="E4" fromLane="0" toLane="0" via=":e4_0_0" dir="s" state="M"/>
    <connection from="E10" to="E11" fromLane="0" toLane="0" via=":e11_0_0" dir="s" state="M"/>
    <connection from="E11" to="E12" fromLane="0" toLane="0" via=":e12_0_0" dir="s" state="M"/>
    <connection from="E12" to="E13" fromLane="0" toLane="0" via=":e13_0_0" dir="s" state="M"/>
    <connection from="E13" to="E14" fromLane="0" toLane="0" via=":e14_0_0" dir="s" state="M"/>
    <connection from="E14" to="E15" fromLane="0" toLane="0" via=":e15_0_0" dir="s" state="M"/>
    <connection from="E15" to="E16" fromLane="0" toLane="0" via=":e16_0_0" dir="r" state="M"/>
    <connection from="E16" to="E17" fromLane="0" toLane="0" via=":e17_0_0" dir="s" state="M"/>
    <connection from="E17" to="E18" fromLane="0" toLane="0" via=":e18_0_0" dir="s" state="M"/>
    <connection from="E18" to="E19" fromLane="0" toLane="0" via=":e19_0_0" dir="s" state="M"/>
    <connection from="E19" to="E20" fromLane="0" toLane="0" via=":e20_0_0" dir="s" state="M"/>
    <connection from="E2" to="E49" fromLane="0" toLane="0" via=":e6_6_0" dir="r" state="m"/>
    <connection from="E2" to="E0" fromLane="0" toLane="0" via=":e6_7_0" dir="s" state="m"/>
    <connection from="E2" to="E46" fromLane="0" toLane="0" via=":e6_8_0" dir="l" state="m"/>
    <connection from="E20" to="E21" fromLane="0" toLane="0" via=":e21_0_0" dir="s" state="M"/>
    <connection from="E21" to="E22" fromLane="0" toLane="0" via=":e22_0_0" dir="s" state="M"/>
    <connection from="E22" to="E23" fromLane="0" toLane="0" via=":e23_0_0" dir="s" state="M"/>
    <connection from="E23" to="E49" fromLane="0" toLane="0" via=":e6_3_0" dir="r" state="m"/>
    <connection from="E23" to="E0" fromLane="0" toLane="0" via=":e6_4_0" dir="s" state="m"/>
    <connection from="E23" to="E46" fromLane="0" toLane="0" via=":e6_5_0" dir="L" state="m"/>
    <connection from="E3" to="E5" fromLane="0" toLane="0" via=":e5_0_0" dir="s" state="M"/>
    <connection from="E4" to="E49" fromLane="0" toLane="0" via=":e6_9_0" dir="s" state="M"/>
    <connection from="E4" to="E0" fromLane="0" toLane="0" via=":e6_10_0" dir="L" state="M"/>
    <connection from="E4" to="E46" fromLane="0" toLane="0" via=":e6_11_0" dir="l" state="M"/>
    <connection from="E46" to="E47" fromLane="0" toLane="0" via=":e43_0_0" dir="r" state="M"/>
    <connection from="E47" to="E48" fromLane="0" toLane="0" via=":e44_0_0" dir="s" state="M"/>
    <connection from="E49" to="E50" fromLane="0" toLane="0" via=":e46_0_0" dir="l" state="M"/>
    <connection from="E5" to="E55" fromLane="0" toLane="0" via=":J0_0_0" dir="s" state="M"/>
    <connection from="E50" to="E51" fromLane="0" toLane="0" via=":e47_0_0" dir="s" state="M"/>
    <connection from="E55" to="E49" fromLane="0" toLane="0" via=":e6_0_0" dir="r" state="m"/>
    <connection from="E55" to="E0" fromLane="0" toLane="0" via=":e6_1_0" dir="R" state="m"/>
    <connection from="E55" to="E46" fromLane="0" toLane="0" via=":e6_2_0" dir="s" state="m"/>
    <connection from="E6" to="E7" fromLane="0" toLane="0" via=":e7_0_0" dir="s" state="M"/>
    <connection from="E7" to="E8" fromLane="0" toLane="0" via=":e8_0_0" dir="s" state="M"/>
    <connection from="E8" to="E9" fromLane="0" toLane="0" via=":e9_0_0" dir="s" state="M"/>
    <connection from="E9" to="E10" fromLane="0" toLane="0" via=":e10_0_0" dir="s" state="M"/>

    <connection from=":J0_0" to="E55" fromLane="0" toLane="0" dir="s" state="M"/>
    <connection from=":e0_0" to="E6" fromLane="0" toLane="0" dir="s" state="M"/>
    <connection from=":e10_0" to="E10" fromLane="0" toLane="0" dir="s" state="M"/>
    <connection from=":e11_0" to="E11" fromLane="0" toLane="0" dir="s" state="M"/>
    <connection from=":e12_0" to="E12" fromLane="0" toLane="0" dir="s" state="M"/>
    <connection from=":e13_0" to="E13" fromLane="0" toLane="0" dir="s" state="M"/>
    <connection from=":e14_0" to="E14" fromLane="0" toLane="0" dir="s" state="M"/>
    <connection from=":e15_0" to="E15" fromLane="0" toLane="0" dir="s" state="M"/>
    <connection from=":e16_0" to="E16" fromLane="0" toLane="0" dir="r" state="M"/>
    <connection from=":e17_0" to="E17" fromLane="0" toLane="0" dir="s" state="M"/>
    <connection from=":e18_0" to="E18" fromLane="0" toLane="0" dir="s" state="M"/>
    <connection from=":e19_0" to="E19" fromLane="0" toLane="0" dir="s" state="M"/>
    <connection from=":e20_0" to="E20" fromLane="0" toLane="0" dir="s" state="M"/>
    <connection from=":e21_0" to="E21" fromLane="0" toLane="0" dir="s" state="M"/>
    <connection from=":e22_0" to="E22" fromLane="0" toLane="0" dir="s" state="M"/>
    <connection from=":e23_0" to="E23" fromLane="0" toLane="0" dir="s" state="M"/>
    <connection from=":e4_0" to="E4" fromLane="0" toLane="0" dir="s" state="M"/>
    <connection from=":e43_0" to="E47" fromLane="0" toLane="0" dir="r" state="M"/>
    <connection from=":e44_0" to="E48" fromLane="0" toLane="0" dir="s" state="M"/>
    <connection from=":e46_0" to="E50" fromLane="0" toLane="0" dir="l" state="M"/>
    <connection from=":e47_0" to="E51" fromLane="0" toLane="0" dir="s" state="M"/>
    <connection from=":e5_0" to="E5" fromLane="0" toLane="0" dir="s" state="M"/>
    <connection from=":e6_0" to="E49" fromLane="0" toLane="0" dir="r" state="M"/>
    <connection from=":e6_1" to="E0" fromLane="0" toLane="0" dir="R" state="M"/>
    <connection from=":e6_2" to="E46" fromLane="0" toLane="0" dir="s" state="M"/>
    <connection from=":e6_3" to="E49" fromLane="0" toLane="0" dir="r" state="M"/>
    <connection from=":e6_4" to="E0" fromLane="0" toLane="0" dir="s" state="M"/>
    <connection from=":e6_5" to="E46" fromLane="0" toLane="0" dir="L" state="M"/>
    <connection from=":e6_6" to="E49" fromLane="0" toLane="0" dir="r" state="M"/>
    <connection from=":e6_7" to="E0" fromLane="0" toLane="0" dir="s" state="M"/>
    <connection from=":e6_8" to="E46" fromLane="0" toLane="0" via=":e6_12_0" dir="l" state="m"/>
    <connection from=":e6_12" to="E46" fromLane="0" toLane="0" dir="l" state="M"/>
    <connection from=":e6_9" to="E49" fromLane="0" toLane="0" dir="s" state="M"/>