<vType id="rail3" priority="1" vClass="rail" length="100" accel="0.7" decel="0.7" sigma="1.0" maxSpeed="30" guiShape="rail" color="0,1,1"/>
<vehicle id="3" type="rail3" route="route2" depart="1" />
<vType id="rail4" priority="1" vClass="rail" length="100" accel="0.7" decel="0.7" sigma="1.0" maxSpeed="30" guiShape="rail" color="0.1,0.3,1"/>
<vehicle id="4" type="rail4" route="route2" depart="23" />
